# Input file for Orca calculation for diamine
!B97-3c LARGEPRINT Opt Freq
%MaxCore 900
%pal nprocs 5 end

* xyz 0 1
C     -1.382824   -1.466402    0.408256
C     -0.141385   -1.671338   -0.475495
C     -0.187466   -0.682299   -1.653461
C     -0.214280    0.769004   -1.127512
C      1.056271    1.023759   -0.285569
C      1.111122    0.036477    0.902868
C      1.124756   -1.408152    0.358462
C     -0.145371    0.232228    1.778554
C     -1.415033   -0.027246    0.948591
C     -1.459067    0.957813   -0.232689
N      2.309979    0.267890    1.709153
N     -0.253768    1.699169   -2.255863
H     -2.292189   -1.669465   -0.170619
H     -1.370660   -2.179146    1.241996
H     -0.125080   -2.698537   -0.856682
H     -1.075080   -0.885674   -2.267228
H      0.685719   -0.840565   -2.300269
H      1.952440    0.909910   -0.911800
H      1.062842    2.058909    0.084116
H      2.014527   -1.577218   -0.262491
H      1.175664   -2.129569    1.184841
H     -0.175627    1.251456    2.186144
H     -0.124210   -0.450373    2.638534
H     -2.301570    0.111185    1.577553
H     -2.377309    0.794296   -0.812211
H     -1.506114    1.986431    0.148650
H      3.141575    0.156424    1.129060
H      2.326280    1.232794    2.038004
H     -0.317522    2.658104   -1.915372
H     -1.096619    1.540135   -2.807523
*