30
Coordinates from ORCA-job C:/Users/emanuele/Desktop/PlacementEssay/PlacementEssay/backup/ChemspeedPlatformAllVersions/V12/Workflows/DataAnalysisWorkflow/FeatureGeneration/calculationFiles/29367721/geometryOptimization/29367721 E -501.189787425840
  C      -1.382824     -1.466402      0.408256
  C      -0.141385     -1.671338     -0.475495
  C      -0.187466     -0.682299     -1.653461
  C      -0.214280      0.769004     -1.127512
  C       1.056271      1.023759     -0.285569
  C       1.111122      0.036477      0.902868
  C       1.124756     -1.408152      0.358462
  C      -0.145371      0.232228      1.778554
  C      -1.415033     -0.027246      0.948591
  C      -1.459067      0.957813     -0.232689
  N       2.309979      0.267890      1.709153
  N      -0.253768      1.699169     -2.255863
  H      -2.292189     -1.669465     -0.170619
  H      -1.370660     -2.179146      1.241996
  H      -0.125080     -2.698537     -0.856682
  H      -1.075080     -0.885674     -2.267228
  H       0.685719     -0.840565     -2.300269
  H       1.952440      0.909910     -0.911800
  H       1.062842      2.058909      0.084116
  H       2.014527     -1.577218     -0.262491
  H       1.175664     -2.129569      1.184841
  H      -0.175627      1.251456      2.186144
  H      -0.124210     -0.450373      2.638534
  H      -2.301570      0.111185      1.577553
  H      -2.377309      0.794296     -0.812211
  H      -1.506114      1.986431      0.148650
  H       3.141575      0.156424      1.129060
  H       2.326280      1.232794      2.038004
  H      -0.317522      2.658104     -1.915372
  H      -1.096619      1.540135     -2.807523
30
Coordinates from ORCA-job C:/Users/emanuele/Desktop/PlacementEssay/PlacementEssay/backup/ChemspeedPlatformAllVersions/V12/Workflows/DataAnalysisWorkflow/FeatureGeneration/calculationFiles/29367721/geometryOptimization/29367721 E -501.192972061011
  C      -1.376095     -1.462359      0.413208
  C      -0.143508     -1.650446     -0.471110
  C      -0.196639     -0.667634     -1.644773
  C      -0.227506      0.770618     -1.131087
  C       1.028605      1.013696     -0.290801
  C       1.104030      0.040224      0.899356
  C       1.116481     -1.387827      0.357565
  C      -0.137978      0.225291      1.771232
  C      -1.405033     -0.033350      0.952075
  C      -1.456627      0.944934     -0.225503
  N       2.297048      0.248378      1.720004
  N      -0.231821      1.685523     -2.273804
  H      -2.283695     -1.665489     -0.160591
  H      -1.356548     -2.174943      1.241248
  H      -0.120449     -2.672676     -0.853846
  H      -1.082293     -0.866087     -2.254827
  H       0.671179     -0.809602     -2.291331
  H       1.914412      0.899853     -0.919012
  H       1.032701      2.043952      0.077834
  H       2.005085     -1.544869     -0.260043
  H       1.176091     -2.096190      1.185440
  H      -0.160608      1.240449      2.177904
  H      -0.096345     -0.455768      2.622845
  H      -2.284178      0.102730      1.586196
  H      -2.369341      0.781088     -0.804508
  H      -1.497925      1.971770      0.148070
  H       3.124017      0.140549      1.143323
  H       2.314479      1.205523      2.054029
  H      -0.290373      2.641606     -1.942123
  H      -1.067166      1.531052     -2.826973
30
Coordinates from ORCA-job C:/Users/emanuele/Desktop/PlacementEssay/PlacementEssay/backup/ChemspeedPlatformAllVersions/V12/Workflows/DataAnalysisWorkflow/FeatureGeneration/calculationFiles/29367721/geometryOptimization/29367721 E -501.193255274095
  C      -1.374725     -1.462870      0.414873
  C      -0.144785     -1.646407     -0.470505
  C      -0.201847     -0.666455     -1.641306
  C      -0.233202      0.770063     -1.130769
  C       1.018882      1.010388     -0.290844
  C       1.102076      0.042058      0.897739
  C       1.113710     -1.382798      0.354485
  C      -0.137154      0.224094      1.768139
  C      -1.402430     -0.034818      0.952382
  C      -1.457603      0.941094     -0.222695
  N       2.292843      0.242048      1.724282
  N      -0.219676      1.679208     -2.277404
  H      -2.282761     -1.666697     -0.156952
  H      -1.352809     -2.175909      1.241554
  H      -0.118309     -2.667892     -0.854914
  H      -1.089630     -0.861584     -2.249110
  H       0.663466     -0.798684     -2.291781
  H       1.902263      0.898104     -0.921884
  H       1.020866      2.040083      0.080390
  H       2.003268     -1.533018     -0.263065
  H       1.180609     -2.084723      1.186112
  H      -0.155424      1.239680      2.173741
  H      -0.083280     -0.456247      2.618393
  H      -2.279405      0.103008      1.588407
  H      -2.368184      0.777894     -0.804907
  H      -1.494866      1.969941      0.145402
  H       3.120006      0.137987      1.146338
  H       2.308440      1.198503      2.062220
  H      -0.275098      2.636515     -1.946456
  H      -1.055241      1.527435     -2.831865
30
Coordinates from ORCA-job C:/Users/emanuele/Desktop/PlacementEssay/PlacementEssay/backup/ChemspeedPlatformAllVersions/V12/Workflows/DataAnalysisWorkflow/FeatureGeneration/calculationFiles/29367721/geometryOptimization/29367721 E -501.193292422238
  C      -1.374943     -1.463678      0.415178
  C      -0.144966     -1.647362     -0.470595
  C      -0.203179     -0.668246     -1.640702
  C      -0.234315      0.769834     -1.130411
  C       1.018262      1.010288     -0.290327
  C       1.102362      0.042606      0.897244
  C       1.113423     -1.383557      0.353148
  C      -0.138137      0.224215      1.767703
  C      -1.402484     -0.034805      0.952081
  C      -1.458742      0.940813     -0.222149
  N       2.292484      0.240356      1.725455
  N      -0.216476      1.677896     -2.277831
  H      -2.283305     -1.667785     -0.156217
  H      -1.353046     -2.176689      1.241900
  H      -0.117624     -2.668991     -0.855364
  H      -1.092551     -0.861430     -2.247303
  H       0.660837     -0.796185     -2.294070
  H       1.901098      0.899542     -0.922991
  H       1.019201      2.039992      0.082274
  H       2.003732     -1.531436     -0.264265
  H       1.183512     -2.082542      1.187296
  H      -0.154603      1.240318      2.172828
  H      -0.079339     -0.455838      2.618112
  H      -2.279391      0.104273      1.588215
  H      -2.368428      0.778065     -0.806394
  H      -1.494758      1.970909      0.143347
  H       3.119451      0.139719      1.146157
  H       2.306482      1.196594      2.064867
  H      -0.270902      2.635345     -1.946117
  H      -1.053655      1.527778     -2.831072
30
Coordinates from ORCA-job C:/Users/emanuele/Desktop/PlacementEssay/PlacementEssay/backup/ChemspeedPlatformAllVersions/V12/Workflows/DataAnalysisWorkflow/FeatureGeneration/calculationFiles/29367721/geometryOptimization/29367721 E -501.193302563366
  C      -1.375323     -1.464080      0.415016
  C      -0.144881     -1.648635     -0.470606
  C      -0.203227     -0.669871     -1.640551
  C      -0.234178      0.769591     -1.130146
  C       1.019360      1.010471     -0.290071
  C       1.102829      0.042684      0.896852
  C       1.113345     -1.385042      0.352770
  C      -0.139048      0.224264      1.767629
  C      -1.402728     -0.034720      0.951724
  C      -1.459229      0.941014     -0.222066
  N       2.292613      0.239495      1.725759
  N      -0.216010      1.677411     -2.277875
  H      -2.283751     -1.668086     -0.156453
  H      -1.354019     -2.176907      1.241949
  H      -0.117519     -2.670469     -0.855238
  H      -1.093629     -0.861387     -2.246390
  H       0.659887     -0.795042     -2.295880
  H       1.901663      0.900977     -0.923987
  H       1.019613      2.040225      0.082954
  H       2.004285     -1.531938     -0.264133
  H       1.184976     -2.081726      1.188886
  H      -0.154293      1.240631      2.172508
  H      -0.077378     -0.455673      2.618097
  H      -2.279961      0.104993      1.587535
  H      -2.368283      0.778628     -0.807601
  H      -1.494795      1.971794      0.141912
  H       3.119326      0.142380      1.145222
  H       2.305057      1.195453      2.066529
  H      -0.269575      2.634811     -1.945328
  H      -1.055126      1.528754     -2.829018
30
Coordinates from ORCA-job C:/Users/emanuele/Desktop/PlacementEssay/PlacementEssay/backup/ChemspeedPlatformAllVersions/V12/Workflows/DataAnalysisWorkflow/FeatureGeneration/calculationFiles/29367721/geometryOptimization/29367721 E -501.193303426499
  C      -1.375442     -1.464025      0.414827
  C      -0.144834     -1.648935     -0.470576
  C      -0.202918     -0.670182     -1.640559
  C      -0.233847      0.769437     -1.130088
  C       1.019914      1.010446     -0.290149
  C       1.102909      0.042565      0.896667
  C       1.113272     -1.385498      0.352906
  C      -0.139162      0.224221      1.767593
  C      -1.402757     -0.034744      0.951661
  C      -1.459053      0.941104     -0.222104
  N       2.292682      0.239382      1.725617
  N      -0.216541      1.677267     -2.277885
  H      -2.283796     -1.667837     -0.156813
  H      -1.354424     -2.176782      1.241834
  H      -0.117779     -2.670845     -0.855005
  H      -1.093427     -0.861261     -2.246338
  H       0.660080     -0.794922     -2.296104
  H       1.901986      0.901180     -0.924404
  H       1.020077      2.040260      0.082628
  H       2.004373     -1.532473     -0.263722
  H       1.184880     -2.081585      1.189484
  H      -0.154153      1.240583      2.172452
  H      -0.077089     -0.455760      2.617979
  H      -2.280162      0.104869      1.587290
  H      -2.368018      0.778799     -0.807755
  H      -1.494657      1.971896      0.141787
  H       3.119332      0.143860      1.144686
  H       2.304426      1.195065      2.067258
  H      -0.269425      2.634657     -1.945162
  H      -1.056447      1.529257     -2.828008
