# Input file for Orca single point energy calculation.
! RIJK RI-PWPB95 D3BJ def2-TZVP def2/JK def2-TZVP/C TIGHTSCF
%MaxCore 900
%pal nprocs 5 end

* xyz +1 2
C 2.460721 0.07639 -0.174367
C 1.003765 -0.191502 -0.099564
N 0.085145 0.700196 0.082497
C -1.175047 0.145379 0.106165
C -1.220411 -1.211257 -0.062879
S 0.361378 -1.839462 -0.261255
C -2.342882 1.00749 0.303448
O -3.492263 0.613479 0.339613
H 2.875261 -0.231443 -1.133379
H 3.005555 -0.454077 0.605421
H 2.625286 1.142042 -0.050109
H -2.096639 -1.835546 -0.0765
H -2.089869 2.078309 0.420908
*