18
Coordinates from ORCA-job C:/Users/emanuele/Desktop/PlacementEssay/PlacementEssay/backup/ChemspeedPlatformAllVersions/V12/Workflows/DataAnalysisWorkflow/FeatureGeneration/calculationFiles/1544882/geometryOptimization/1544882 E -531.029858198285
  C      -2.899642      0.005132     -0.546846
  C      -1.885619     -0.939327     -0.577050
  C      -0.571488     -0.547473     -0.286439
  C       0.489761     -1.463435     -0.303257
  C       1.769683     -1.021878     -0.007985
  C       1.925880      0.320410      0.290981
  N       0.919587      1.223709      0.314024
  C      -0.311911      0.803549      0.030881
  N      -1.295504      1.701981      0.056569
  C      -2.555222      1.302609     -0.226855
  C       3.261467      0.863016      0.615796
  O       4.268901      0.164646      0.634758
  H      -3.927519     -0.261144     -0.765946
  H      -2.119938     -1.971274     -0.825205
  H       0.323680     -2.510461     -0.543551
  H       2.616936     -1.700121     -0.010592
  H      -3.305325      2.088134     -0.186782
  H       3.296273      1.941928      0.841556
18
Coordinates from ORCA-job C:/Users/emanuele/Desktop/PlacementEssay/PlacementEssay/backup/ChemspeedPlatformAllVersions/V12/Workflows/DataAnalysisWorkflow/FeatureGeneration/calculationFiles/1544882/geometryOptimization/1544882 E -531.034453193930
  C      -2.885113      0.004405     -0.544636
  C      -1.894842     -0.950943     -0.580964
  C      -0.576498     -0.572462     -0.292513
  C       0.492439     -1.482636     -0.306840
  C       1.756700     -1.031010     -0.012017
  C       1.918121      0.325731      0.290629
  N       0.929778      1.220146      0.314727
  C      -0.313062      0.794949      0.028792
  N      -1.296537      1.713226      0.058670
  C      -2.531734      1.315741     -0.220395
  C       3.254634      0.872144      0.616476
  O       4.263978      0.191433      0.639839
  H      -3.913216     -0.250561     -0.761346
  H      -2.134685     -1.977350     -0.828734
  H       0.328537     -2.525984     -0.545842
  H       2.606947     -1.696705     -0.011465
  H      -3.280467      2.098153     -0.180578
  H       3.275021      1.951723      0.840254
18
Coordinates from ORCA-job C:/Users/emanuele/Desktop/PlacementEssay/PlacementEssay/backup/ChemspeedPlatformAllVersions/V12/Workflows/DataAnalysisWorkflow/FeatureGeneration/calculationFiles/1544882/geometryOptimization/1544882 E -531.035402097390
  C      -2.879846      0.005151     -0.543752
  C      -1.905087     -0.954781     -0.583611
  C      -0.579977     -0.587588     -0.296228
  C       0.497961     -1.492546     -0.307949
  C       1.751276     -1.036577     -0.013834
  C       1.915032      0.329298      0.291118
  N       0.934407      1.214246      0.314530
  C      -0.314464      0.785105      0.026711
  N      -1.296881      1.717302      0.059656
  C      -2.519354      1.325193     -0.216398
  C       3.256014      0.874669      0.617793
  O       4.268908      0.207525      0.643357
  H      -3.910380     -0.239879     -0.758905
  H      -2.145766     -1.980444     -0.831466
  H       0.331316     -2.534912     -0.547167
  H       2.609494     -1.691578     -0.009649
  H      -3.274152      2.103002     -0.178427
  H       3.261498      1.956816      0.838280
18
Coordinates from ORCA-job C:/Users/emanuele/Desktop/PlacementEssay/PlacementEssay/backup/ChemspeedPlatformAllVersions/V12/Workflows/DataAnalysisWorkflow/FeatureGeneration/calculationFiles/1544882/geometryOptimization/1544882 E -531.035487836323
  C      -2.881186      0.005310     -0.543363
  C      -1.907779     -0.953934     -0.583348
  C      -0.580278     -0.588616     -0.296673
  C       0.499858     -1.492791     -0.307917
  C       1.752178     -1.037449     -0.014821
  C       1.916147      0.330211      0.289910
  N       0.934689      1.213170      0.312880
  C      -0.314419      0.782583      0.025340
  N      -1.296214      1.717653      0.059011
  C      -2.519402      1.327253     -0.216106
  C       3.259512      0.873752      0.615266
  O       4.272147      0.207239      0.647189
  H      -3.912777     -0.236916     -0.757562
  H      -2.145547     -1.980865     -0.830485
  H       0.329027     -2.534907     -0.547254
  H       2.613978     -1.688424     -0.009424
  H      -3.278878      2.101180     -0.179654
  H       3.258943      1.955552      0.841069
18
Coordinates from ORCA-job C:/Users/emanuele/Desktop/PlacementEssay/PlacementEssay/backup/ChemspeedPlatformAllVersions/V12/Workflows/DataAnalysisWorkflow/FeatureGeneration/calculationFiles/1544882/geometryOptimization/1544882 E -531.035379602103
  C      -2.882545      0.006339     -0.546463
  C      -1.910158     -0.951416     -0.586284
  C      -0.580356     -0.588897     -0.295895
  C       0.502075     -1.492678     -0.306287
  C       1.752955     -1.039941     -0.009985
  C       1.916100      0.329178      0.298111
  N       0.933031      1.209896      0.319911
  C      -0.314971      0.777846      0.028954
  N      -1.295444      1.716685      0.063481
  C      -2.519575      1.329651     -0.214860
  C       3.261406      0.868067      0.629626
  O       4.279199      0.209473      0.630582
  H      -3.915300     -0.230261     -0.762609
  H      -2.141108     -1.980042     -0.835582
  H       0.323433     -2.533399     -0.549122
  H       2.620500     -1.684193     -0.000915
  H      -3.286959      2.096449     -0.181163
  H       3.257717      1.957244      0.822556
18
Coordinates from ORCA-job C:/Users/emanuele/Desktop/PlacementEssay/PlacementEssay/backup/ChemspeedPlatformAllVersions/V12/Workflows/DataAnalysisWorkflow/FeatureGeneration/calculationFiles/1544882/geometryOptimization/1544882 E -531.035527701373
  C      -2.881998      0.005638     -0.543897
  C      -1.908395     -0.952426     -0.583572
  C      -0.579856     -0.587472     -0.296226
  C       0.500709     -1.492087     -0.307404
  C       1.753136     -1.038484     -0.014104
  C       1.916406      0.329931      0.291112
  N       0.933797      1.212181      0.313715
  C      -0.314234      0.780446      0.025634
  N      -1.294993      1.717174      0.059766
  C      -2.519229      1.328227     -0.215796
  C       3.261059      0.871318      0.616943
  O       4.274253      0.205649      0.644368
  H      -3.914602     -0.232851     -0.757936
  H      -2.140727     -1.981013     -0.830587
  H       0.323363     -2.533254     -0.547942
  H       2.618945     -1.684558     -0.006877
  H      -3.284054      2.096989     -0.181294
  H       3.256419      1.954592      0.838154
18
Coordinates from ORCA-job C:/Users/emanuele/Desktop/PlacementEssay/PlacementEssay/backup/ChemspeedPlatformAllVersions/V12/Workflows/DataAnalysisWorkflow/FeatureGeneration/calculationFiles/1544882/geometryOptimization/1544882 E -531.035529627577
  C      -2.881631      0.005475     -0.543888
  C      -1.907813     -0.952620     -0.583569
  C      -0.579696     -0.586987     -0.296138
  C       0.500317     -1.492037     -0.307496
  C       1.752914     -1.038485     -0.014093
  C       1.916160      0.329717      0.291103
  N       0.933941      1.212517      0.313847
  C      -0.314144      0.781053      0.025775
  N      -1.295130      1.717310      0.059803
  C      -2.518952      1.327864     -0.215802
  C       3.260454      0.871316      0.617206
  O       4.273424      0.205237      0.644032
  H      -3.914230     -0.232874     -0.757889
  H      -2.139731     -1.981234     -0.830530
  H       0.322642     -2.533047     -0.548072
  H       2.618669     -1.684513     -0.006796
  H      -3.283682      2.096716     -0.181229
  H       3.256488      1.954592      0.837795
