# Input file for Orca calculation for diamine
!B97-3c LARGEPRINT Opt Freq
%MaxCore 900
%pal nprocs 5 end

* xyz 0 1
C     -2.831279    1.702463    0.465297
C     -3.789669    0.713479    0.298016
C     -3.355736   -0.579277    0.069314
N     -2.053659   -0.936700   -0.000952
C     -1.113332    0.035602    0.163522
C     -1.481045    1.362876    0.397864
C      0.306170   -0.390346    0.080577
C      0.668371   -1.721124   -0.154367
C      2.015575   -2.074288   -0.224153
C      2.981917   -1.093205   -0.058281
C      2.550790    0.203880    0.171181
N      1.249219    0.578994    0.244537
C      3.530836    1.295076    0.356233
O      4.742455    1.113954    0.317347
H     -3.127315    2.731714    0.647087
H     -4.847990    0.943811    0.344604
H     -4.065512   -1.390211   -0.068306
H     -0.725577    2.132054    0.527906
H     -0.095406   -2.484107   -0.283296
H      2.302307   -3.106411   -0.406403
H      4.039368   -1.332456   -0.106423
H      3.099513    2.294221    0.533573
*