# Input file for Orca single point energy calculation.
! RIJK RI-PWPB95 D3BJ def2-TZVP def2/JK def2-TZVP/C TIGHTSCF
%MaxCore 900
%pal nprocs 5 end

* xyz +1 2
C -2.588582 -0.406967 0.135555
C -1.110194 -0.204624 0.077639
C -0.234252 -1.050447 0.759949
N 1.088213 -0.923838 0.753033
C 1.610417 0.083739 0.042149
C 0.830407 0.985884 -0.677276
C -0.540732 0.835659 -0.655856
C 3.085329 0.185578 0.063805
O 3.724612 1.034853 -0.522681
H -3.086105 0.456517 0.577534
H -2.849977 -1.280981 0.726858
H -3.007769 -0.539279 -0.861822
H -0.630666 -1.875379 1.342983
H 1.313809 1.77728 -1.232464
H -1.175397 1.520231 -1.205267
H 3.570887 -0.598228 0.67586
*