# Input file for Orca calculation for diamine
!B97-3c LARGEPRINT Opt Freq
%MaxCore 900
%pal nprocs 5 end

* xyz 0 1
C      0.071350    1.807584   -1.153992
C      1.195288    0.985254   -1.078145
C      1.157867   -0.202369   -0.335540
C     -0.021380   -0.541651    0.345799
C     -1.154643    0.284049    0.283394
C     -1.098886    1.457013   -0.481040
C     -2.425580   -0.106694    0.992562
N     -3.277011   -0.925718    0.138348
C      2.378738   -1.080001   -0.234956
N      3.212953   -0.697113    0.897695
H      0.107498    2.723363   -1.738641
H      2.102313    1.273900   -1.605010
H     -0.057590   -1.458984    0.931440
H     -1.968889    2.106260   -0.552941
H     -2.189845   -0.656225    1.911152
H     -2.973089    0.789983    1.304933
H     -2.748711   -1.745411   -0.158036
H     -3.472664   -0.407900   -0.717578
H      2.079883   -2.129564   -0.132657
H      2.964099   -1.017730   -1.159535
H      2.650500   -0.742664    1.746466
H      3.467798    0.284618    0.796284
*