26
Coordinates from ORCA-job C:/Users/emanuele/Desktop/PlacementEssay/PlacementEssay/backup/ChemspeedPlatformAllVersions/V12/Workflows/DataAnalysisWorkflow/FeatureGeneration/calculationFiles/63433/geometryOptimization/63433 E -497.953670459336
  C       4.084753     -0.300269     -0.966839
  C       2.623735     -0.291165     -1.430588
  O       1.781785      0.026205     -0.314516
  C       0.403704      0.014218     -0.685998
  C      -0.449898      0.355121      0.530238
  O      -1.828204      0.348885      0.159459
  C      -2.671336      0.662715      1.273160
  C      -4.135096      0.660044      0.813998
  N      -4.530758     -0.630056      0.236395
  N       4.324379     -1.364358      0.013323
  H       4.324324      0.661163     -0.499326
  H       4.749846     -0.444999     -1.823548
  H       2.493113      0.471142     -2.206956
  H       2.345922     -1.269213     -1.841165
  H       0.222852      0.744692     -1.483622
  H       0.125226     -0.975064     -1.068514
  H      -0.168968      1.342507      0.915827
  H      -0.271310     -0.377845      1.326115
  H      -2.521861     -0.079708      2.065961
  H      -2.412705      1.654738      1.660306
  H      -4.279380      1.428337      0.046754
  H      -4.792079      0.897271      1.656603
  H      -3.864298     -0.832527     -0.514413
  H      -4.371971     -1.366163      0.923252
  H       3.603975     -1.283152      0.734854
  H       5.214251     -1.196232      0.479240
26
Coordinates from ORCA-job C:/Users/emanuele/Desktop/PlacementEssay/PlacementEssay/backup/ChemspeedPlatformAllVersions/V12/Workflows/DataAnalysisWorkflow/FeatureGeneration/calculationFiles/63433/geometryOptimization/63433 E -497.957237080125
  C       4.037416     -0.291666     -0.943567
  C       2.608500     -0.272780     -1.429843
  O       1.766007      0.046553     -0.325879
  C       0.395959      0.031048     -0.690484
  C      -0.418615      0.373329      0.535935
  O      -1.788636      0.361836      0.170626
  C      -2.634476      0.669220      1.272360
  C      -4.079062      0.628563      0.794403
  N      -4.496042     -0.656571      0.227415
  N       4.234994     -1.377602      0.024760
  H       4.275756      0.686787     -0.507058
  H       4.696811     -0.451147     -1.797225
  H       2.494568      0.482475     -2.215852
  H       2.335563     -1.252337     -1.836880
  H       0.201316      0.762075     -1.483601
  H       0.108461     -0.957934     -1.064961
  H      -0.129140      1.360708      0.912795
  H      -0.225977     -0.359812      1.327835
  H      -2.481462     -0.065204      2.073388
  H      -2.390715      1.666662      1.661575
  H      -4.221283      1.391435      0.028655
  H      -4.735242      0.877722      1.628428
  H      -3.845461     -0.880256     -0.516792
  H      -4.358524     -1.384370      0.921095
  H       3.525710     -1.281392      0.741244
  H       5.123575     -1.251054      0.491628
26
Coordinates from ORCA-job C:/Users/emanuele/Desktop/PlacementEssay/PlacementEssay/backup/ChemspeedPlatformAllVersions/V12/Workflows/DataAnalysisWorkflow/FeatureGeneration/calculationFiles/63433/geometryOptimization/63433 E -497.957937376780
  C       4.029303     -0.291594     -0.928337
  C       2.613350     -0.256307     -1.429235
  O       1.760556      0.058948     -0.336640
  C       0.392549      0.046502     -0.693662
  C      -0.406391      0.384737      0.539970
  O      -1.773926      0.375501      0.180788
  C      -2.631640      0.676568      1.269534
  C      -4.064101      0.610174      0.779782
  N      -4.490177     -0.676687      0.235665
  N       4.201938     -1.392369      0.023324
  H       4.274996      0.694589     -0.511383
  H       4.684678     -0.459496     -1.783743
  H       2.511655      0.498764     -2.218386
  H       2.340713     -1.232999     -1.844913
  H       0.189685      0.781480     -1.481436
  H       0.097186     -0.939354     -1.070787
  H      -0.109286      1.369461      0.918770
  H      -0.205908     -0.351776      1.327315
  H      -2.475368     -0.048642      2.080795
  H      -2.404242      1.677290      1.662114
  H      -4.204288      1.363981      0.005187
  H      -4.723497      0.877791      1.606097
  H      -3.846625     -0.927475     -0.504598
  H      -4.376200     -1.392068      0.945610
  H       3.511091     -1.279979      0.754151
  H       5.103951     -1.310752      0.474018
26
Coordinates from ORCA-job C:/Users/emanuele/Desktop/PlacementEssay/PlacementEssay/backup/ChemspeedPlatformAllVersions/V12/Workflows/DataAnalysisWorkflow/FeatureGeneration/calculationFiles/63433/geometryOptimization/63433 E -497.958095298249
  C       4.033360     -0.293758     -0.920750
  C       2.618678     -0.246191     -1.428916
  O       1.760351      0.063150     -0.340653
  C       0.393465      0.054999     -0.696042
  C      -0.405551      0.386713      0.540519
  O      -1.771865      0.382580      0.182202
  C      -2.636093      0.680443      1.264636
  C      -4.065508      0.604235      0.771401
  N      -4.495085     -0.687106      0.248743
  N       4.195904     -1.400083      0.020927
  H       4.285649      0.693505     -0.509013
  H       4.687614     -0.462841     -1.777877
  H       2.523057      0.513520     -2.215007
  H       2.344472     -1.218327     -1.855700
  H       0.189034      0.794872     -1.479287
  H       0.094802     -0.927378     -1.080475
  H      -0.104632      1.367956      0.926339
  H      -0.204467     -0.354431      1.323801
  H      -2.477230     -0.039143      2.081528
  H      -2.417556      1.682643      1.659363
  H      -4.204150      1.349113     -0.013213
  H      -4.726269      0.888364      1.592316
  H      -3.854187     -0.959662     -0.486385
  H      -4.398560     -1.391192      0.972154
  H       3.524228     -1.275387      0.768204
  H       5.110540     -1.350306      0.451183
26
Coordinates from ORCA-job C:/Users/emanuele/Desktop/PlacementEssay/PlacementEssay/backup/ChemspeedPlatformAllVersions/V12/Workflows/DataAnalysisWorkflow/FeatureGeneration/calculationFiles/63433/geometryOptimization/63433 E -497.958154584673
  C       4.036484     -0.295392     -0.916303
  C       2.621328     -0.239714     -1.428843
  O       1.760958      0.064147     -0.341504
  C       0.395224      0.059826     -0.697902
  C      -0.407313      0.384960      0.539614
  O      -1.772449      0.386535      0.179737
  C      -2.639059      0.682871      1.259643
  C      -4.068466      0.602640      0.765872
  N      -4.499179     -0.693227      0.260401
  N       4.193546     -1.403129      0.020211
  H       4.292725      0.691036     -0.504026
  H       4.691486     -0.463164     -1.773731
  H       2.529663      0.525632     -2.210201
  H       2.346108     -1.207580     -1.865187
  H       0.191250      0.804389     -1.477188
  H       0.095090     -0.919470     -1.089678
  H      -0.103837      1.362719      0.932950
  H      -0.208208     -0.361061      1.319053
  H      -2.478274     -0.033548      2.079231
  H      -2.425567      1.685995      1.655608
  H      -4.205538      1.339616     -0.027178
  H      -4.729511      0.900014      1.582455
  H      -3.859026     -0.982658     -0.469055
  H      -4.417123     -1.388164      0.994020
  H       3.540741     -1.267966      0.782551
  H       5.118948     -1.379023      0.429450
26
Coordinates from ORCA-job C:/Users/emanuele/Desktop/PlacementEssay/PlacementEssay/backup/ChemspeedPlatformAllVersions/V12/Workflows/DataAnalysisWorkflow/FeatureGeneration/calculationFiles/63433/geometryOptimization/63433 E -497.958173147534
  C       4.036795     -0.295668     -0.915024
  C       2.621293     -0.237803     -1.428667
  O       1.761150      0.063759     -0.340598
  C       0.395983      0.061091     -0.698416
  C      -0.409009      0.382950      0.538833
  O      -1.773531      0.388023      0.177141
  C      -2.639802      0.684084      1.257182
  C      -4.069973      0.603066      0.763801
  N      -4.500204     -0.694993      0.265048
  N       4.192741     -1.402874      0.020683
  H       4.293507      0.689887     -0.500481
  H       4.693030     -0.461922     -1.771749
  H       2.531066      0.530624     -2.207216
  H       2.346003     -1.203846     -1.868746
  H       0.192725      0.807905     -1.475858
  H       0.095708     -0.916858     -1.093625
  H      -0.104307      1.358805      0.936128
  H      -0.212036     -0.365868      1.316196
  H      -2.478399     -0.031815      2.076923
  H      -2.427713      1.687597      1.653325
  H      -4.205882      1.336346     -0.032941
  H      -4.731077      0.905788      1.578298
  H      -3.859155     -0.991443     -0.460625
  H      -4.426113     -1.386145      1.002778
  H       3.552603     -1.261492      0.792313
  H       5.124598     -1.392911      0.415298
26
Coordinates from ORCA-job C:/Users/emanuele/Desktop/PlacementEssay/PlacementEssay/backup/ChemspeedPlatformAllVersions/V12/Workflows/DataAnalysisWorkflow/FeatureGeneration/calculationFiles/63433/geometryOptimization/63433 E -497.958180469373
  C       4.035888     -0.295097     -0.915051
  C       2.620316     -0.238215     -1.428366
  O       1.760911      0.063349     -0.339502
  C       0.395830      0.060725     -0.698131
  C      -0.410046      0.381737      0.538665
  O      -1.774427      0.388598      0.175792
  C      -2.639865      0.684655      1.256676
  C      -4.070518      0.603921      0.763384
  N      -4.499932     -0.694518      0.264973
  N       4.192877     -1.401527      0.021341
  H       4.291312      0.690159     -0.498819
  H       4.693225     -0.460402     -1.770838
  H       2.530076      0.530965     -2.206187
  H       2.345412     -1.204254     -1.868277
  H       0.192839      0.807986     -1.475198
  H       0.095994     -0.917094     -1.093929
  H      -0.104751      1.356840      0.937282
  H      -0.214627     -0.368272      1.315225
  H      -2.478673     -0.031976      2.075594
  H      -2.427574      1.688183      1.652673
  H      -4.205450      1.336452     -0.034102
  H      -4.731926      0.907267      1.577164
  H      -3.857147     -0.992516     -0.458323
  H      -4.430304     -1.385136      1.003470
  H       3.561558     -1.256110      0.799080
  H       5.129003     -1.399433      0.405403
26
Coordinates from ORCA-job C:/Users/emanuele/Desktop/PlacementEssay/PlacementEssay/backup/ChemspeedPlatformAllVersions/V12/Workflows/DataAnalysisWorkflow/FeatureGeneration/calculationFiles/63433/geometryOptimization/63433 E -497.958182819303
  C       4.034994     -0.294278     -0.915437
  C       2.619463     -0.239439     -1.428132
  O       1.760529      0.063308     -0.339016
  C       0.395254      0.059754     -0.697585
  C      -0.410314      0.381368      0.539030
  O      -1.774845      0.388640      0.175894
  C      -2.639924      0.684606      1.257352
  C      -4.070563      0.604643      0.763653
  N      -4.499610     -0.693043      0.262586
  N       4.193644     -1.400248      0.021718
  H       4.288826      0.691254     -0.498913
  H       4.692938     -0.459390     -1.770597
  H       2.528445      0.528846     -2.206757
  H       2.345030     -1.206433     -1.865991
  H       0.191979      0.806367     -1.475144
  H       0.096014     -0.918604     -1.092374
  H      -0.104844      1.356509      0.937286
  H      -0.215529     -0.368647      1.315671
  H      -2.479322     -0.033036      2.075411
  H      -2.426856      1.687873      1.653366
  H      -4.204822      1.338221     -0.032913
  H      -4.732373      0.906343      1.577583
  H      -3.855220     -0.989963     -0.459650
  H      -4.431762     -1.384709      1.000247
  H       3.566899     -1.252711      0.802558
  H       5.131969     -1.400943      0.400156
26
Coordinates from ORCA-job C:/Users/emanuele/Desktop/PlacementEssay/PlacementEssay/backup/ChemspeedPlatformAllVersions/V12/Workflows/DataAnalysisWorkflow/FeatureGeneration/calculationFiles/63433/geometryOptimization/63433 E -497.958183543622
  C       4.034529     -0.293619     -0.915745
  C       2.618992     -0.240545     -1.428061
  O       1.760237      0.063465     -0.339050
  C       0.394742      0.058790     -0.697164
  C      -0.410263      0.381228      0.539483
  O      -1.774970      0.388437      0.176525
  C      -2.640063      0.684160      1.258212
  C      -4.070512      0.605236      0.764003
  N      -4.499692     -0.691453      0.260117
  N       4.194521     -1.399233      0.021982
  H       4.287203      0.692406     -0.499769
  H       4.692735     -0.458938     -1.770603
  H       2.527099      0.526423     -2.207894
  H       2.344946     -1.208560     -1.863855
  H       0.190934      0.804553     -1.475361
  H       0.096044     -0.920187     -1.090753
  H      -0.104752      1.356608      0.937036
  H      -0.215610     -0.368442      1.316443
  H      -2.480029     -0.034329      2.075635
  H      -2.426223      1.687047      1.654582
  H      -4.204358      1.340286     -0.031266
  H      -4.732571      0.905136      1.578373
  H      -3.854226     -0.987029     -0.461736
  H      -4.432443     -1.384335      0.996737
  H       3.569870     -1.250494      0.804246
  H       5.133859     -1.400322      0.397884
