# Input file for Orca single point energy calculation.
! RIJK RI-PWPB95 D3BJ def2-TZVP def2/JK def2-TZVP/C TIGHTSCF
%MaxCore 900
%pal nprocs 5 end

* xyz 0 1
C -2.788825 1.700441 0.464751
C -3.746625 0.71221 0.297197
C -3.313614 -0.586178 0.067429
N -2.031556 -0.932911 -0.000494
C -1.108215 0.026212 0.162059
C -1.450679 1.357601 0.397032
C 0.309245 -0.390576 0.080884
C 0.650784 -1.726054 -0.15461
C 1.986924 -2.079153 -0.22457
C 2.952128 -1.101541 -0.05953
C 2.525711 0.202863 0.171291
N 1.239037 0.556688 0.240908
C 3.496954 1.30607 0.358103
O 4.702281 1.173865 0.32775
H -3.080271 2.726389 0.646323
H -4.803291 0.936931 0.34273
H -4.030655 -1.387971 -0.068794
H -0.669786 2.091709 0.521182
H -0.136965 -2.45314 -0.277129
H 2.269484 -3.107372 -0.406449
H 4.010473 -1.314697 -0.103701
H 3.017464 2.288612 0.532517
*