32
Coordinates from ORCA-job C:/Users/emanuele/Desktop/PlacementEssay/PlacementEssay/backup/ChemspeedPlatformAllVersions/V12/Workflows/DataAnalysisWorkflow/FeatureGeneration/calculationFiles/89131/geometryOptimization/89131 E -652.326981739592
  C       3.883102      1.329969      1.331329
  C       4.483571      0.128950      0.971974
  C       3.772996     -0.805431      0.216662
  C       2.471078     -0.538562     -0.228195
  C       1.843986      0.653098      0.186397
  C       2.567114      1.586253      0.950914
  C       0.397283      0.949268     -0.140834
  C      -0.553054      0.256006      0.841058
  C      -1.943826      0.119406      0.262402
  C      -2.912001      1.082331      0.599432
  C      -4.188791      1.035335      0.042817
  C      -4.505361      0.039673     -0.874019
  C      -3.550215     -0.918335     -1.218109
  C      -2.282023     -0.924269     -0.621652
  N      -1.320161     -1.837371     -1.093339
  N       1.759530     -1.562290     -0.881726
  H       4.430086      2.057569      1.924727
  H       5.499249     -0.089699      1.289751
  H       4.248572     -1.752091     -0.026145
  H       2.098830      2.516052      1.266362
  H       0.220430      2.033114     -0.113814
  H       0.197697      0.668550     -1.181856
  H      -0.189374     -0.732963      1.144441
  H      -0.590434      0.829795      1.777058
  H      -2.667719      1.885755      1.290922
  H      -4.926960      1.787037      0.308836
  H      -5.489487      0.014201     -1.333625
  H      -3.806445     -1.668865     -1.961307
  H      -1.733991     -2.697691     -1.440207
  H      -0.586199     -2.038258     -0.414072
  H       2.365825     -2.191171     -1.400032
  H       1.006693     -1.215367     -1.476148
32
Coordinates from ORCA-job C:/Users/emanuele/Desktop/PlacementEssay/PlacementEssay/backup/ChemspeedPlatformAllVersions/V12/Workflows/DataAnalysisWorkflow/FeatureGeneration/calculationFiles/89131/geometryOptimization/89131 E -652.331003565176
  C       3.852759      1.349190      1.375471
  C       4.495344      0.175959      1.009914
  C       3.831419     -0.762676      0.235013
  C       2.524844     -0.538424     -0.208042
  C       1.860086      0.632623      0.187009
  C       2.544282      1.566941      0.964800
  C       0.416769      0.884165     -0.169708
  C      -0.556159      0.195198      0.797224
  C      -1.955619      0.106099      0.242709
  C      -2.887264      1.088652      0.578419
  C      -4.167075      1.088450      0.039609
  C      -4.529229      0.093350     -0.855742
  C      -3.617115     -0.893018     -1.198344
  C      -2.336924     -0.917939     -0.637860
  N      -1.423278     -1.894692     -1.059392
  N       1.865996     -1.541001     -0.934223
  H       4.364612      2.087614      1.979006
  H       5.511436     -0.012441      1.331024
  H       4.341871     -1.680024     -0.034499
  H       2.042818      2.478347      1.264977
  H       0.225221      1.956787     -0.149561
  H       0.222635      0.587869     -1.203404
  H      -0.194696     -0.796308      1.080402
  H      -0.575889      0.758627      1.729922
  H      -2.605302      1.876203      1.265735
  H      -4.873894      1.861026      0.313577
  H      -5.519592      0.085904     -1.291830
  H      -3.910127     -1.658810     -1.907218
  H      -1.876700     -2.735460     -1.380554
  H      -0.723124     -2.121273     -0.367348
  H       2.503704     -2.131137     -1.444832
  H       1.148193     -1.189803     -1.552254
32
Coordinates from ORCA-job C:/Users/emanuele/Desktop/PlacementEssay/PlacementEssay/backup/ChemspeedPlatformAllVersions/V12/Workflows/DataAnalysisWorkflow/FeatureGeneration/calculationFiles/89131/geometryOptimization/89131 E -652.331779856068
  C       3.873694      1.392480      1.304916
  C       4.499098      0.196405      0.992559
  C       3.814274     -0.778541      0.297424
  C       2.495005     -0.578190     -0.108671
  C       1.858199      0.630890      0.194784
  C       2.564654      1.591242      0.900426
  C       0.424183      0.862677     -0.176137
  C      -0.558787      0.176849      0.781592
  C      -1.954386      0.111112      0.237929
  C      -2.904296      1.040601      0.629126
  C      -4.187248      1.045184      0.108792
  C      -4.534191      0.088523     -0.831270
  C      -3.604065     -0.843595     -1.242025
  C      -2.311329     -0.847061     -0.718268
  N      -1.363851     -1.753217     -1.205190
  N       1.796375     -1.609491     -0.744267
  H       4.401803      2.163814      1.844910
  H       5.520662      0.019282      1.294464
  H       4.306399     -1.713730      0.064104
  H       2.074570      2.525470      1.133915
  H       0.224702      1.929110     -0.174610
  H       0.219307      0.534288     -1.195304
  H      -0.181864     -0.815410      1.029657
  H      -0.567367      0.721777      1.719863
  H      -2.630206      1.779272      1.368449
  H      -4.908814      1.776450      0.440528
  H      -5.529603      0.069970     -1.249498
  H      -3.879908     -1.582905     -1.982711
  H      -1.778469     -2.587074     -1.580185
  H      -0.643893     -1.996253     -0.548894
  H       2.400222     -2.249611     -1.227498
  H       1.065130     -1.300319     -1.358907
32
Coordinates from ORCA-job C:/Users/emanuele/Desktop/PlacementEssay/PlacementEssay/backup/ChemspeedPlatformAllVersions/V12/Workflows/DataAnalysisWorkflow/FeatureGeneration/calculationFiles/89131/geometryOptimization/89131 E -652.332595872224
  C       3.855088      1.392954      1.335380
  C       4.491826      0.202935      1.015792
  C       3.825205     -0.765712      0.289196
  C       2.510847     -0.566917     -0.136115
  C       1.857109      0.632505      0.185499
  C       2.549468      1.590088      0.914542
  C       0.422220      0.851731     -0.187268
  C      -0.554434      0.162937      0.779483
  C      -1.953138      0.104576      0.245074
  C      -2.891453      1.055629      0.623086
  C      -4.173015      1.075367      0.095966
  C      -4.530890      0.113086     -0.836590
  C      -3.615906     -0.846225     -1.227984
  C      -2.325762     -0.867559     -0.695981
  N      -1.399786     -1.814470     -1.148401
  N       1.838087     -1.583973     -0.822618
  H       4.370380      2.159445      1.897221
  H       5.511785      0.027148      1.330708
  H       4.329648     -1.691971      0.040664
  H       2.046788      2.518102      1.158381
  H       0.210216      1.919559     -0.191666
  H       0.219524      0.513599     -1.205359
  H      -0.178588     -0.833158      1.020361
  H      -0.550496      0.707430      1.722327
  H      -2.605400      1.802376      1.353741
  H      -4.883802      1.825352      0.413762
  H      -5.526217      0.106516     -1.260456
  H      -3.903250     -1.596547     -1.955096
  H      -1.834090     -2.640081     -1.529699
  H      -0.705692     -2.077104     -0.465407
  H       2.460983     -2.221033     -1.293612
  H       1.132744     -1.256585     -1.464925
32
Coordinates from ORCA-job C:/Users/emanuele/Desktop/PlacementEssay/PlacementEssay/backup/ChemspeedPlatformAllVersions/V12/Workflows/DataAnalysisWorkflow/FeatureGeneration/calculationFiles/89131/geometryOptimization/89131 E -652.332714484220
  C       3.853902      1.411702      1.321067
  C       4.490977      0.216220      1.021521
  C       3.826539     -0.764207      0.306432
  C       2.512761     -0.572835     -0.125037
  C       1.856062      0.631886      0.180245
  C       2.548075      1.601886      0.895438
  C       0.421176      0.841957     -0.195402
  C      -0.551331      0.151370      0.776980
  C      -1.951848      0.099913      0.248370
  C      -2.890921      1.045002      0.643682
  C      -4.174000      1.072692      0.118796
  C      -4.532478      0.125787     -0.829689
  C      -3.618383     -0.829629     -1.236845
  C      -2.327380     -0.860602     -0.706611
  N      -1.402170     -1.799837     -1.176525
  N       1.841625     -1.601924     -0.795158
  H       4.367786      2.186626      1.873124
  H       5.510728      0.045189      1.341293
  H       4.331409     -1.694228      0.071962
  H       2.043211      2.533183      1.124372
  H       0.199270      1.908609     -0.208793
  H       0.220004      0.492142     -1.210160
  H      -0.175564     -0.847491      1.007648
  H      -0.536896      0.690740      1.723661
  H      -2.602340      1.780263      1.385785
  H      -4.884193      1.818453      0.448642
  H      -5.528584      0.126210     -1.252959
  H      -3.906344     -1.569367     -1.974902
  H      -1.835343     -2.612500     -1.586505
  H      -0.713391     -2.084046     -0.495391
  H       2.464296     -2.256454     -1.242397
  H       1.143346     -1.286712     -1.452642
32
Coordinates from ORCA-job C:/Users/emanuele/Desktop/PlacementEssay/PlacementEssay/backup/ChemspeedPlatformAllVersions/V12/Workflows/DataAnalysisWorkflow/FeatureGeneration/calculationFiles/89131/geometryOptimization/89131 E -652.332748650501
  C       3.857169      1.415977      1.309896
  C       4.487660      0.215004      1.019064
  C       3.818213     -0.767964      0.311352
  C       2.504559     -0.574283     -0.118906
  C       1.852796      0.635940      0.179838
  C       2.551030      1.608519      0.885258
  C       0.419174      0.843981     -0.195843
  C      -0.550046      0.151800      0.780848
  C      -1.949421      0.101570      0.253150
  C      -2.894155      1.038258      0.654724
  C      -4.176373      1.064879      0.126886
  C      -4.527604      0.125287     -0.831315
  C      -3.608918     -0.824217     -1.243440
  C      -2.319344     -0.854311     -0.710145
  N      -1.387868     -1.785654     -1.182180
  N       1.825728     -1.603274     -0.780184
  H       4.375216      2.192633      1.855419
  H       5.507233      0.041428      1.338060
  H       4.317850     -1.701872      0.081183
  H       2.049127      2.543200      1.106644
  H       0.190061      1.908939     -0.215053
  H       0.216776      0.484595     -1.206833
  H      -0.171857     -0.847878      1.003337
  H      -0.528582      0.687956      1.729111
  H      -2.608827      1.767328      1.404155
  H      -4.890320      1.805084      0.460827
  H      -5.522440      0.124801     -1.257575
  H      -3.891058     -1.560692     -1.986971
  H      -1.813504     -2.588389     -1.617974
  H      -0.710892     -2.084134     -0.495648
  H       2.441581     -2.275352     -1.209705
  H       1.137038     -1.289162     -1.447978
32
Coordinates from ORCA-job C:/Users/emanuele/Desktop/PlacementEssay/PlacementEssay/backup/ChemspeedPlatformAllVersions/V12/Workflows/DataAnalysisWorkflow/FeatureGeneration/calculationFiles/89131/geometryOptimization/89131 E -652.332755056409
  C       3.855376      1.420657      1.310487
  C       4.490181      0.221846      1.021618
  C       3.824336     -0.764243      0.314948
  C       2.510370     -0.575666     -0.116406
  C       1.854353      0.632857      0.180216
  C       2.548893      1.608575      0.884700
  C       0.420761      0.838325     -0.198717
  C      -0.549996      0.146249      0.777033
  C      -1.950218      0.100179      0.249852
  C      -2.891861      1.038191      0.655165
  C      -4.175481      1.067909      0.130795
  C      -4.531672      0.130183     -0.826943
  C      -3.616059     -0.820663     -1.242648
  C      -2.325034     -0.853985     -0.713304
  N      -1.396814     -1.786016     -1.190177
  N       1.835429     -1.608469     -0.775415
  H       4.370475      2.199732      1.855316
  H       5.510022      0.052085      1.341537
  H       4.327274     -1.696808      0.086738
  H       2.043946      2.541892      1.104266
  H       0.189759      1.902644     -0.218844
  H       0.221163      0.478471     -1.209910
  H      -0.174404     -0.854403      0.998804
  H      -0.526708      0.681526      1.725520
  H      -2.603051      1.765710      1.404565
  H      -4.886919      1.809230      0.467551
  H      -5.527629      0.132280     -1.250363
  H      -3.901954     -1.555543     -1.986265
  H      -1.825790     -2.585924     -1.627876
  H      -0.718980     -2.088034     -0.506221
  H       2.454031     -2.280140     -1.201589
  H       1.146203     -1.298648     -1.444431
32
Coordinates from ORCA-job C:/Users/emanuele/Desktop/PlacementEssay/PlacementEssay/backup/ChemspeedPlatformAllVersions/V12/Workflows/DataAnalysisWorkflow/FeatureGeneration/calculationFiles/89131/geometryOptimization/89131 E -652.332756269915
  C       3.855618      1.419218      1.311602
  C       4.490525      0.221066      1.020777
  C       3.824336     -0.764178      0.313280
  C       2.510138     -0.575254     -0.117052
  C       1.854466      0.632947      0.180951
  C       2.549020      1.607795      0.886443
  C       0.420885      0.839281     -0.197889
  C      -0.550246      0.147074      0.777342
  C      -1.950295      0.100605      0.249425
  C      -2.891795      1.039175      0.653461
  C      -4.175312      1.068167      0.128787
  C      -4.531660      0.129066     -0.827373
  C      -3.615891     -0.822167     -1.241819
  C      -2.324842     -0.854522     -0.712645
  N      -1.396313     -1.787052     -1.188191
  N       1.834768     -1.607152     -0.777065
  H       4.370882      2.197650      1.857216
  H       5.510536      0.051023      1.339918
  H       4.327435     -1.696319      0.083682
  H       2.044158      2.540782      1.107436
  H       0.190052      1.903599     -0.217048
  H       0.221645      0.480473     -1.209509
  H      -0.175061     -0.853543      0.999798
  H      -0.527429      0.682789      1.725535
  H      -2.603107      1.767814      1.401770
  H      -4.886781      1.809927      0.464556
  H      -5.527631      0.130460     -1.250694
  H      -3.901942     -1.558100     -1.984338
  H      -1.825477     -2.586873     -1.625833
  H      -0.719241     -2.088775     -0.503393
  H       2.453272     -2.278530     -1.203784
  H       1.145287     -1.296446     -1.445341
