16
Coordinates from ORCA-job C:/Users/emanuele/Desktop/PlacementEssay/PlacementEssay/backup/ChemspeedPlatformAllVersions/V12/Workflows/DataAnalysisWorkflow/FeatureGeneration/calculationFiles/8639750/geometryOptimization/8639750 E -400.736329191053
  C      -2.594720     -0.403547      0.124444
  C      -1.113085     -0.196650      0.099855
  C      -0.250887     -1.108704      0.702883
  N       1.096947     -1.002025      0.693757
  C       1.608507      0.067965      0.037851
  C       0.840704      1.026624     -0.608009
  C      -0.543709      0.884144     -0.577960
  C       3.083299      0.165571      0.040334
  O       3.689549      1.076256     -0.512980
  H      -3.123490      0.554683      0.087056
  H      -2.903398     -0.908899      1.045616
  H      -2.903022     -1.010563     -0.732295
  H      -0.633669     -1.980852      1.228052
  H       1.306643      1.860477     -1.123257
  H      -1.170176      1.616210     -1.082156
  H       3.610506     -0.640691      0.576808
16
Coordinates from ORCA-job C:/Users/emanuele/Desktop/PlacementEssay/PlacementEssay/backup/ChemspeedPlatformAllVersions/V12/Workflows/DataAnalysisWorkflow/FeatureGeneration/calculationFiles/8639750/geometryOptimization/8639750 E -400.737665024875
  C      -2.592197     -0.407303      0.125333
  C      -1.110525     -0.195901      0.088844
  C      -0.240232     -1.096350      0.698290
  N       1.092322     -0.987208      0.685038
  C       1.606663      0.070488      0.032986
  C       0.833024      1.027575     -0.610869
  C      -0.544033      0.887210     -0.579281
  C       3.081694      0.163952      0.040149
  O       3.703079      1.059392     -0.504063
  H      -3.125159      0.540791      0.088136
  H      -2.894822     -0.920234      1.036399
  H      -2.910513     -1.009998     -0.725557
  H      -0.622968     -1.957563      1.234643
  H       1.302116      1.857637     -1.118455
  H      -1.172643      1.618789     -1.071381
  H       3.594191     -0.651278      0.579787
16
Coordinates from ORCA-job C:/Users/emanuele/Desktop/PlacementEssay/PlacementEssay/backup/ChemspeedPlatformAllVersions/V12/Workflows/DataAnalysisWorkflow/FeatureGeneration/calculationFiles/8639750/geometryOptimization/8639750 E -400.737976845124
  C      -2.590767     -0.410264      0.127716
  C      -1.111055     -0.193930      0.084416
  C      -0.233964     -1.088091      0.698317
  N       1.088492     -0.975227      0.678805
  C       1.608797      0.072338      0.026733
  C       0.828743      1.029076     -0.613892
  C      -0.544409      0.890106     -0.579964
  C       3.085021      0.160288      0.031083
  O       3.719849      1.050748     -0.495107
  H      -3.130225      0.532449      0.091260
  H      -2.890152     -0.936256      1.030477
  H      -2.916873     -1.008560     -0.723112
  H      -0.621736     -1.944083      1.240211
  H       1.304183      1.857172     -1.118080
  H      -1.177241      1.621205     -1.065962
  H       3.581336     -0.656972      0.587098
16
Coordinates from ORCA-job C:/Users/emanuele/Desktop/PlacementEssay/PlacementEssay/backup/ChemspeedPlatformAllVersions/V12/Workflows/DataAnalysisWorkflow/FeatureGeneration/calculationFiles/8639750/geometryOptimization/8639750 E -400.737683708963
  C      -2.589132     -0.415350      0.123992
  C      -1.112144     -0.191535      0.084791
  C      -0.231347     -1.079852      0.706866
  N       1.086473     -0.960514      0.688933
  C       1.610769      0.083023      0.037354
  C       0.826715      1.035882     -0.607118
  C      -0.544711      0.893210     -0.578204
  C       3.087143      0.174410      0.049510
  O       3.731167      1.028372     -0.520160
  H      -3.136175      0.523177      0.086437
  H      -2.889719     -0.952996      1.019560
  H      -2.914027     -1.010763     -0.730326
  H      -0.624777     -1.932895      1.250801
  H       1.307256      1.863998     -1.107869
  H      -1.180779      1.620830     -1.065996
  H       3.573287     -0.678998      0.561429
16
Coordinates from ORCA-job C:/Users/emanuele/Desktop/PlacementEssay/PlacementEssay/backup/ChemspeedPlatformAllVersions/V12/Workflows/DataAnalysisWorkflow/FeatureGeneration/calculationFiles/8639750/geometryOptimization/8639750 E -400.738042279950
  C      -2.589840     -0.411670      0.127332
  C      -1.112163     -0.192771      0.085636
  C      -0.233422     -1.086145      0.702280
  N       1.088426     -0.970397      0.682508
  C       1.610598      0.076250      0.029502
  C       0.828456      1.031322     -0.612762
  C      -0.544661      0.890978     -0.579981
  C       3.086846      0.164345      0.034382
  O       3.725786      1.045267     -0.503026
  H      -3.133067      0.529997      0.094159
  H      -2.889508     -0.947238      1.025265
  H      -2.916621     -1.005335     -0.727727
  H      -0.625896     -1.940367      1.244744
  H       1.307323      1.858849     -1.116474
  H      -1.179663      1.620155     -1.067459
  H       3.577406     -0.663241      0.581619
16
Coordinates from ORCA-job C:/Users/emanuele/Desktop/PlacementEssay/PlacementEssay/backup/ChemspeedPlatformAllVersions/V12/Workflows/DataAnalysisWorkflow/FeatureGeneration/calculationFiles/8639750/geometryOptimization/8639750 E -400.738048709190
  C      -2.589247     -0.411542      0.127673
  C      -1.112116     -0.192431      0.086226
  C      -0.233172     -1.085906      0.703342
  N       1.088893     -0.970189      0.683268
  C       1.610798      0.076526      0.029363
  C       0.828565      1.031219     -0.613473
  C      -0.544640      0.890807     -0.580577
  C       3.086816      0.164231      0.033845
  O       3.725592      1.045661     -0.503386
  H      -3.133181      0.530069      0.098541
  H      -2.888644     -0.951667      1.023157
  H      -2.916680     -1.001440     -0.730012
  H      -0.627113     -1.939597      1.245602
  H       1.308442      1.858063     -1.117643
  H      -1.180197      1.619195     -1.068770
  H       3.575884     -0.663001      0.582842
16
Coordinates from ORCA-job C:/Users/emanuele/Desktop/PlacementEssay/PlacementEssay/backup/ChemspeedPlatformAllVersions/V12/Workflows/DataAnalysisWorkflow/FeatureGeneration/calculationFiles/8639750/geometryOptimization/8639750 E -400.738054597040
  C      -2.588263     -0.411438      0.128193
  C      -1.111841     -0.192047      0.086860
  C      -0.232594     -1.084960      0.705448
  N       1.089620     -0.969274      0.685293
  C       1.610896      0.077181      0.029399
  C       0.828633      1.030692     -0.615167
  C      -0.544607      0.890122     -0.582232
  C       3.086664      0.164562      0.033962
  O       3.725224      1.045720     -0.504507
  H      -3.133198      0.530099      0.110014
  H      -2.886719     -0.962363      1.017548
  H      -2.917522     -0.991422     -0.735836
  H      -0.628938     -1.937226      1.248209
  H       1.310289      1.856032     -1.120340
  H      -1.181085      1.616881     -1.071871
  H       3.573439     -0.662559      0.585026
16
Coordinates from ORCA-job C:/Users/emanuele/Desktop/PlacementEssay/PlacementEssay/backup/ChemspeedPlatformAllVersions/V12/Workflows/DataAnalysisWorkflow/FeatureGeneration/calculationFiles/8639750/geometryOptimization/8639750 E -400.738058128772
  C      -2.587846     -0.411434      0.128458
  C      -1.111608     -0.192010      0.087060
  C      -0.232299     -1.083888      0.707235
  N       1.089943     -0.968254      0.687216
  C       1.610813      0.077533      0.029538
  C       0.828620      1.029857     -0.616764
  C      -0.544597      0.889202     -0.583869
  C       3.086578      0.164959      0.034453
  O       3.725000      1.045443     -0.505382
  H      -3.132956      0.530225      0.121505
  H      -2.885240     -0.972254      1.011951
  H      -2.918898     -0.981441     -0.741569
  H      -0.629716     -1.935064      1.250938
  H       1.311227      1.854004     -1.122995
  H      -1.181494      1.614760     -1.074778
  H       3.572471     -0.661639      0.587003
16
Coordinates from ORCA-job C:/Users/emanuele/Desktop/PlacementEssay/PlacementEssay/backup/ChemspeedPlatformAllVersions/V12/Workflows/DataAnalysisWorkflow/FeatureGeneration/calculationFiles/8639750/geometryOptimization/8639750 E -400.738070959798
  C      -2.586887     -0.411459      0.129274
  C      -1.110873     -0.192357      0.087509
  C      -0.231592     -1.079360      0.714543
  N       1.090732     -0.963664      0.695329
  C       1.610411      0.078581      0.030348
  C       0.828509      1.025735     -0.623527
  C      -0.544558      0.884738     -0.590930
  C       3.086363      0.166706      0.036768
  O       3.724399      1.043945     -0.508803
  H      -3.131227      0.529950      0.171418
  H      -2.879608     -1.013565      0.986593
  H      -2.925780     -0.937302     -0.765258
  H      -0.631616     -1.926276      1.262999
  H       1.313840      1.845310     -1.134536
  H      -1.182477      1.605685     -1.087297
  H       3.570364     -0.656668      0.595569
16
Coordinates from ORCA-job C:/Users/emanuele/Desktop/PlacementEssay/PlacementEssay/backup/ChemspeedPlatformAllVersions/V12/Workflows/DataAnalysisWorkflow/FeatureGeneration/calculationFiles/8639750/geometryOptimization/8639750 E -400.738087366738
  C      -2.586106     -0.411443      0.130325
  C      -1.110012     -0.193562      0.087853
  C      -0.231086     -1.071585      0.726999
  N       1.091408     -0.955190      0.709388
  C       1.609828      0.079962      0.032184
  C       0.828329      1.017911     -0.635150
  C      -0.544397      0.876141     -0.603390
  C       3.086113      0.169855      0.040988
  O       3.723792      1.040981     -0.514523
  H      -3.126657      0.524573      0.259593
  H      -2.870907     -1.082647      0.937148
  H      -2.939192     -0.856182     -0.801835
  H      -0.633353     -1.911708      1.284182
  H       1.316679      1.830112     -1.154935
  H      -1.183177      1.589395     -1.109675
  H       3.568738     -0.646615      0.610847
16
Coordinates from ORCA-job C:/Users/emanuele/Desktop/PlacementEssay/PlacementEssay/backup/ChemspeedPlatformAllVersions/V12/Workflows/DataAnalysisWorkflow/FeatureGeneration/calculationFiles/8639750/geometryOptimization/8639750 E -400.738103547053
  C      -2.586550     -0.411217      0.130633
  C      -1.109947     -0.194930      0.087308
  C      -0.231556     -1.067497      0.733522
  N       1.091049     -0.950026      0.717170
  C       1.609651      0.080447      0.033892
  C       0.828301      1.013146     -0.641326
  C      -0.544132      0.870472     -0.610777
  C       3.086047      0.171752      0.043761
  O       3.723842      1.039113     -0.517231
  H      -3.122785      0.519287      0.309771
  H      -2.866791     -1.118807      0.907173
  H      -2.948188     -0.808584     -0.819195
  H      -0.632725     -1.904860      1.295547
  H       1.316433      1.821918     -1.166567
  H      -1.182432      1.579648     -1.123329
  H       3.569782     -0.639864      0.619646
16
Coordinates from ORCA-job C:/Users/emanuele/Desktop/PlacementEssay/PlacementEssay/backup/ChemspeedPlatformAllVersions/V12/Workflows/DataAnalysisWorkflow/FeatureGeneration/calculationFiles/8639750/geometryOptimization/8639750 E -400.738135340325
  C      -2.588333     -0.409985      0.131375
  C      -1.110395     -0.198857      0.084828
  C      -0.233389     -1.059809      0.746035
  N       1.089447     -0.938670      0.732958
  C       1.609804      0.081179      0.038087
  C       0.828598      1.002143     -0.654900
  C      -0.543071      0.856875     -0.627608
  C       3.085922      0.176375      0.050616
  O       3.724451      1.035612     -0.521558
  H      -3.111252      0.501275      0.419151
  H      -2.859247     -1.191058      0.837226
  H      -2.970359     -0.701335     -0.847715
  H      -0.629912     -1.892074      1.318550
  H       1.313775      1.804443     -1.192600
  H      -1.179275      1.557198     -1.154755
  H       3.573238     -0.623312      0.640308
16
Coordinates from ORCA-job C:/Users/emanuele/Desktop/PlacementEssay/PlacementEssay/backup/ChemspeedPlatformAllVersions/V12/Workflows/DataAnalysisWorkflow/FeatureGeneration/calculationFiles/8639750/geometryOptimization/8639750 E -400.738141098200
  C      -2.588877     -0.408735      0.132592
  C      -1.110432     -0.201816      0.082669
  C      -0.234230     -1.053555      0.756003
  N       1.088718     -0.929673      0.745400
  C       1.610024      0.082163      0.040766
  C       0.829085      0.993122     -0.666673
  C      -0.542044      0.845602     -0.641879
  C       3.085654      0.180609      0.056458
  O       3.724542      1.033680     -0.524554
  H      -3.099865      0.477879      0.507301
  H      -2.854090     -1.245137      0.774159
  H      -2.988551     -0.610482     -0.861525
  H      -0.629350     -1.881056      1.336202
  H       1.313196      1.789428     -1.214178
  H      -1.177310      1.537820     -1.180842
  H       3.573530     -0.609850      0.658099
16
Coordinates from ORCA-job C:/Users/emanuele/Desktop/PlacementEssay/PlacementEssay/backup/ChemspeedPlatformAllVersions/V12/Workflows/DataAnalysisWorkflow/FeatureGeneration/calculationFiles/8639750/geometryOptimization/8639750 E -400.738143043576
  C      -2.588833     -0.408160      0.133517
  C      -1.110407     -0.202733      0.081089
  C      -0.234265     -1.053363      0.756318
  N       1.088565     -0.928637      0.746722
  C       1.610218      0.082513      0.041127
  C       0.829483      0.991629     -0.668938
  C      -0.541638      0.843190     -0.645243
  C       3.085551      0.181874      0.058349
  O       3.724483      1.034404     -0.523596
  H      -3.096370      0.474427      0.522375
  H      -2.853127     -1.252356      0.765362
  H      -2.993431     -0.595671     -0.861291
  H      -0.629568     -1.880657      1.336716
  H       1.313181      1.787060     -1.218086
  H      -1.176709      1.533653     -1.186694
  H       3.572865     -0.607174      0.662271
16
Coordinates from ORCA-job C:/Users/emanuele/Desktop/PlacementEssay/PlacementEssay/backup/ChemspeedPlatformAllVersions/V12/Workflows/DataAnalysisWorkflow/FeatureGeneration/calculationFiles/8639750/geometryOptimization/8639750 E -400.738144999836
  C      -2.588602     -0.406976      0.135455
  C      -1.110230     -0.204570      0.077989
  C      -0.234244     -1.051100      0.759324
  N       1.088289     -0.924589      0.752062
  C       1.610480      0.083555      0.042074
  C       0.830323      0.986627     -0.676212
  C      -0.540767      0.836460     -0.654581
  C       3.085319      0.185208      0.063213
  O       3.724466      1.035096     -0.522604
  H      -3.087164      0.459462      0.570296
  H      -2.850423     -1.277079      0.732320
  H      -3.006183     -0.546621     -0.861669
  H      -0.630433     -1.876519      1.341805
  H       1.313622      1.778640     -1.230616
  H      -1.175509      1.521684     -1.203110
  H       3.571057     -0.599280      0.674254
16
Coordinates from ORCA-job C:/Users/emanuele/Desktop/PlacementEssay/PlacementEssay/backup/ChemspeedPlatformAllVersions/V12/Workflows/DataAnalysisWorkflow/FeatureGeneration/calculationFiles/8639750/geometryOptimization/8639750 E -400.738145199273
  C      -2.588582     -0.406967      0.135555
  C      -1.110194     -0.204624      0.077639
  C      -0.234252     -1.050447      0.759949
  N       1.088213     -0.923838      0.753033
  C       1.610417      0.083739      0.042149
  C       0.830407      0.985884     -0.677276
  C      -0.540732      0.835659     -0.655856
  C       3.085329      0.185578      0.063805
  O       3.724612      1.034853     -0.522681
  H      -3.086105      0.456517      0.577534
  H      -2.849977     -1.280981      0.726858
  H      -3.007769     -0.539279     -0.861822
  H      -0.630666     -1.875379      1.342983
  H       1.313809      1.777280     -1.232464
  H      -1.175397      1.520231     -1.205267
  H       3.570887     -0.598228      0.675860
