# Input file for Orca calculation for diamine
!B97-3c LARGEPRINT Opt Freq
%MaxCore 900
%pal nprocs 5 end

* xyz 0 1
C     -2.594720   -0.403547    0.124444
C     -1.113085   -0.196650    0.099855
C     -0.250887   -1.108704    0.702883
N      1.096947   -1.002025    0.693757
C      1.608507    0.067965    0.037851
C      0.840704    1.026624   -0.608009
C     -0.543709    0.884144   -0.577960
C      3.083299    0.165571    0.040334
O      3.689549    1.076256   -0.512980
H     -3.123490    0.554683    0.087056
H     -2.903398   -0.908899    1.045616
H     -2.903022   -1.010563   -0.732295
H     -0.633669   -1.980852    1.228052
H      1.306643    1.860477   -1.123257
H     -1.170176    1.616210   -1.082156
H      3.610506   -0.640691    0.576808
*