# Input file for Orca calculation for diamine
!B97-3c LARGEPRINT Opt Freq
%MaxCore 900
%pal nprocs 5 end

* xyz 0 1
C      2.040787   -1.076472    1.874435
O      2.305267    0.202918    1.318811
C      1.389842    0.745356    0.444575
C      1.805371    2.009421   -0.008297
C      1.032395    2.739705   -0.899661
C     -0.168710    2.208223   -1.347285
C     -0.600061    0.947317   -0.906033
C      0.173310    0.181014    0.005837
N     -0.273240   -1.034000    0.411811
C     -1.455146   -1.496740   -0.062557
C     -2.259044   -0.810155   -0.948543
C     -1.818032    0.433150   -1.373872
C     -1.856236   -2.828467    0.437355
O     -2.898340   -3.377640    0.098551
H      1.137362   -1.063764    2.491928
H      2.877287   -1.326219    2.535066
H      2.003402   -1.847752    1.098957
H      2.748366    2.421048    0.346318
H      1.365649    3.715903   -1.241699
H     -0.769286    2.787228   -2.046363
H     -3.197945   -1.226409   -1.297988
H     -2.430404    0.998991   -2.072863
H     -1.152594   -3.302658    1.141517
*