23
Coordinates from ORCA-job C:/Users/emanuele/Desktop/PlacementEssay/PlacementEssay/backup/ChemspeedPlatformAllVersions/V12/Workflows/DataAnalysisWorkflow/FeatureGeneration/calculationFiles/1265903/geometryOptimization/1265903 E -629.471576941991
  C       2.040787     -1.076472      1.874435
  O       2.305267      0.202918      1.318811
  C       1.389842      0.745356      0.444575
  C       1.805371      2.009421     -0.008297
  C       1.032395      2.739705     -0.899661
  C      -0.168710      2.208223     -1.347285
  C      -0.600061      0.947317     -0.906033
  C       0.173310      0.181014      0.005837
  N      -0.273240     -1.034000      0.411811
  C      -1.455146     -1.496740     -0.062557
  C      -2.259044     -0.810155     -0.948543
  C      -1.818032      0.433150     -1.373872
  C      -1.856236     -2.828467      0.437355
  O      -2.898340     -3.377640      0.098551
  H       1.137362     -1.063764      2.491928
  H       2.877287     -1.326219      2.535066
  H       2.003402     -1.847752      1.098957
  H       2.748366      2.421048      0.346318
  H       1.365649      3.715903     -1.241699
  H      -0.769286      2.787228     -2.046363
  H      -3.197945     -1.226409     -1.297988
  H      -2.430404      0.998991     -2.072863
  H      -1.152594     -3.302658      1.141517
23
Coordinates from ORCA-job C:/Users/emanuele/Desktop/PlacementEssay/PlacementEssay/backup/ChemspeedPlatformAllVersions/V12/Workflows/DataAnalysisWorkflow/FeatureGeneration/calculationFiles/1265903/geometryOptimization/1265903 E -629.477252034241
  C       2.089306     -1.094887      1.914216
  O       2.281148      0.184279      1.315426
  C       1.375601      0.729194      0.445242
  C       1.783850      1.980754     -0.005014
  C       1.018193      2.723454     -0.899220
  C      -0.179556      2.223874     -1.363218
  C      -0.625236      0.967178     -0.933291
  C       0.144938      0.179685     -0.011271
  N      -0.300175     -1.031256      0.393502
  C      -1.463151     -1.482382     -0.075449
  C      -2.274203     -0.784676     -0.972363
  C      -1.844709      0.447154     -1.398853
  C      -1.856802     -2.812831      0.428948
  O      -2.887811     -3.374913      0.104690
  H       1.202920     -1.115604      2.541278
  H       2.958857     -1.261757      2.550231
  H       2.057999     -1.885274      1.170222
  H       2.722197      2.374639      0.357120
  H       1.365771      3.693057     -1.228483
  H      -0.770138      2.806512     -2.058177
  H      -3.207361     -1.206798     -1.314700
  H      -2.449718      1.014183     -2.093992
  H      -1.141920     -3.273588      1.133156
23
Coordinates from ORCA-job C:/Users/emanuele/Desktop/PlacementEssay/PlacementEssay/backup/ChemspeedPlatformAllVersions/V12/Workflows/DataAnalysisWorkflow/FeatureGeneration/calculationFiles/1265903/geometryOptimization/1265903 E -629.478971267041
  C       2.036419     -1.123819      1.897350
  O       2.246421      0.160277      1.308301
  C       1.379898      0.736521      0.444692
  C       1.783925      1.978473     -0.003249
  C       1.019503      2.725552     -0.899563
  C      -0.176386      2.246752     -1.374388
  C      -0.630375      0.992040     -0.950453
  C       0.142337      0.198587     -0.022911
  N      -0.282872     -1.010890      0.393616
  C      -1.429469     -1.473062     -0.059242
  C      -2.256552     -0.777215     -0.965689
  C      -1.849990      0.447226     -1.402596
  C      -1.807555     -2.804526      0.455684
  O      -2.825187     -3.391503      0.152453
  H       1.139071     -1.145734      2.505357
  H       2.907133     -1.281522      2.527332
  H       1.983253     -1.905532      1.148032
  H       2.722102      2.359966      0.365726
  H       1.378047      3.692356     -1.220697
  H      -0.766287      2.827320     -2.068118
  H      -3.183839     -1.220309     -1.292824
  H      -2.457356      1.009578     -2.097104
  H      -1.072243     -3.240536      1.158291
23
Coordinates from ORCA-job C:/Users/emanuele/Desktop/PlacementEssay/PlacementEssay/backup/ChemspeedPlatformAllVersions/V12/Workflows/DataAnalysisWorkflow/FeatureGeneration/calculationFiles/1265903/geometryOptimization/1265903 E -629.479201301539
  C       2.051815     -1.124789      1.906055
  O       2.243629      0.159335      1.308267
  C       1.380631      0.736512      0.445475
  C       1.784913      1.980468     -0.003008
  C       1.020213      2.725735     -0.898672
  C      -0.176045      2.247792     -1.374791
  C      -0.632315      0.993308     -0.952662
  C       0.139428      0.200761     -0.026002
  N      -0.288344     -1.009106      0.389546
  C      -1.437204     -1.476103     -0.062475
  C      -2.262557     -0.778313     -0.969639
  C      -1.853351      0.445611     -1.404542
  C      -1.820446     -2.807920      0.449382
  O      -2.839627     -3.394737      0.148335
  H       1.154172     -1.154839      2.515253
  H       2.929494     -1.263323      2.531694
  H       2.000665     -1.911312      1.160015
  H       2.724961      2.362789      0.367116
  H       1.381156      3.693639     -1.218643
  H      -0.768422      2.827216     -2.069530
  H      -3.190250     -1.224798     -1.295609
  H      -2.457878      1.012827     -2.100371
  H      -1.084641     -3.240756      1.154806
23
Coordinates from ORCA-job C:/Users/emanuele/Desktop/PlacementEssay/PlacementEssay/backup/ChemspeedPlatformAllVersions/V12/Workflows/DataAnalysisWorkflow/FeatureGeneration/calculationFiles/1265903/geometryOptimization/1265903 E -629.479221303652
  C       2.049082     -1.125968      1.906226
  O       2.240547      0.158446      1.308477
  C       1.382018      0.738179      0.446129
  C       1.787679      1.983360     -0.003936
  C       1.022136      2.726169     -0.899573
  C      -0.174881      2.247311     -1.374922
  C      -0.631809      0.993389     -0.951903
  C       0.139475      0.203675     -0.026071
  N      -0.287655     -1.005798      0.391107
  C      -1.438275     -1.475950     -0.059278
  C      -2.263422     -0.779225     -0.966697
  C      -1.853202      0.444314     -1.402532
  C      -1.823605     -2.806043      0.453653
  O      -2.836832     -3.398779      0.142492
  H       1.149112     -1.155873      2.512955
  H       2.927252     -1.263074      2.531355
  H       1.995354     -1.911471      1.158414
  H       2.728300      2.366628      0.365381
  H       1.384136      3.693961     -1.220124
  H      -0.769283      2.824664     -2.070444
  H      -3.191060     -1.228998     -1.289762
  H      -2.455615      1.014008     -2.099110
  H      -1.079455     -3.242924      1.148162
23
Coordinates from ORCA-job C:/Users/emanuele/Desktop/PlacementEssay/PlacementEssay/backup/ChemspeedPlatformAllVersions/V12/Workflows/DataAnalysisWorkflow/FeatureGeneration/calculationFiles/1265903/geometryOptimization/1265903 E -629.479196306292
  C       2.045866     -1.129192      1.901956
  O       2.237421      0.157202      1.308226
  C       1.383431      0.739870      0.446713
  C       1.789046      1.987691     -0.002445
  C       1.021958      2.728318     -0.897311
  C      -0.174766      2.247362     -1.373348
  C      -0.630398      0.992534     -0.951709
  C       0.140991      0.205611     -0.027753
  N      -0.283595     -1.004464      0.389447
  C      -1.434524     -1.478572     -0.061378
  C      -2.260057     -0.783158     -0.968390
  C      -1.850782      0.441497     -1.402925
  C      -1.818218     -2.809299      0.448261
  O      -2.842706     -3.392223      0.154302
  H       1.142870     -1.160637      2.504818
  H       2.923463     -1.267025      2.527363
  H       1.990731     -1.911206      1.149896
  H       2.729090      2.372842      0.367059
  H       1.383665      3.696941     -1.216526
  H      -0.771652      2.822712     -2.068931
  H      -3.185975     -1.238021     -1.290168
  H      -2.450949      1.013988     -2.099744
  H      -1.084908     -3.232774      1.162585
23
Coordinates from ORCA-job C:/Users/emanuele/Desktop/PlacementEssay/PlacementEssay/backup/ChemspeedPlatformAllVersions/V12/Workflows/DataAnalysisWorkflow/FeatureGeneration/calculationFiles/1265903/geometryOptimization/1265903 E -629.479247083338
  C       2.048758     -1.127094      1.904434
  O       2.239686      0.158441      1.308837
  C       1.381763      0.738163      0.446463
  C       1.787162      1.984005     -0.002907
  C       1.021201      2.726419     -0.898490
  C      -0.175358      2.246936     -1.374392
  C      -0.631486      0.992539     -0.951898
  C       0.139734      0.203557     -0.026562
  N      -0.286482     -1.006066      0.390480
  C      -1.436635     -1.476350     -0.060818
  C      -2.261855     -0.780233     -0.968146
  C      -1.852239      0.443728     -1.403462
  C      -1.820551     -2.806719      0.450934
  O      -2.839379     -3.394151      0.147936
  H       1.148268     -1.158194      2.510115
  H       2.926483     -1.265045      2.529745
  H       1.995536     -1.910897      1.154943
  H       2.727137      2.368054      0.366496
  H       1.382958      3.694415     -1.218317
  H      -0.770173      2.823769     -2.069811
  H      -3.188551     -1.231848     -1.290932
  H      -2.453483      1.014394     -2.100009
  H      -1.082495     -3.237823      1.155364
23
Coordinates from ORCA-job C:/Users/emanuele/Desktop/PlacementEssay/PlacementEssay/backup/ChemspeedPlatformAllVersions/V12/Workflows/DataAnalysisWorkflow/FeatureGeneration/calculationFiles/1265903/geometryOptimization/1265903 E -629.479247733906
  C       2.048851     -1.127324      1.904196
  O       2.239278      0.158685      1.309346
  C       1.381622      0.738290      0.446771
  C       1.787060      1.984125     -0.002685
  C       1.021098      2.726345     -0.898482
  C      -0.175341      2.246782     -1.374526
  C      -0.631447      0.992355     -0.951888
  C       0.139641      0.203703     -0.026437
  N      -0.286573     -1.005898      0.390840
  C      -1.436742     -1.476136     -0.060628
  C      -2.261835     -0.780228     -0.968187
  C      -1.852166      0.443652     -1.403676
  C      -1.820753     -2.806334      0.451364
  O      -2.839410     -3.393850      0.147856
  H       1.148293     -1.159070      2.509727
  H       2.926618     -1.265324      2.529403
  H       1.995874     -1.910594      1.154123
  H       2.726930      2.368438      0.366674
  H       1.383007      3.694304     -1.218273
  H      -0.770191      2.823384     -2.070099
  H      -3.188359     -1.232454     -1.290620
  H      -2.452876      1.014659     -2.100385
  H      -1.082579     -3.237513      1.155587
