# Input file for Orca single point energy calculation.
! RIJK RI-PWPB95 D3BJ def2-TZVP def2/JK def2-TZVP/C TIGHTSCF
%MaxCore 900
%pal nprocs 5 end

* xyz -1 2
C -2.725596 -1.982932 -1.964935
C -1.86512 -2.692515 -1.139522
C -0.864072 -2.03315 -0.445195
C -0.701855 -0.65155 -0.567856
C -1.565282 0.049523 -1.412347
C -2.569812 -0.609725 -2.099135
C 0.354698 0.070017 0.164067
C 0.880985 -0.412889 1.369137
C 1.88061 0.294076 2.013819
C 2.331595 1.478647 1.460503
C 1.740345 1.905087 0.276009
N 0.780944 1.226472 -0.359848
C 2.152425 3.173158 -0.372451
O 3.00994 3.916037 0.056564
H -3.509257 -2.497962 -2.504538
H -1.96883 -3.76481 -1.040851
H -0.184893 -2.607629 0.16979
H -1.434676 1.116196 -1.518588
H -3.235135 -0.049799 -2.74279
H 0.495145 -1.321842 1.806898
H 2.29231 -0.071956 2.944795
H 3.107724 2.076919 1.915327
H 1.597806 3.390625 -1.305217
*