30
Coordinates from ORCA-job C:/Users/emanuele/Desktop/PlacementEssay/PlacementEssay/backup/ChemspeedPlatformAllVersions/V12/Workflows/DataAnalysisWorkflow/FeatureGeneration/calculationFiles/185118/geometryOptimization/185118 E -501.189747569052
  C      -0.797851      1.895366     -0.015273
  C      -0.357821      1.132903     -1.275911
  C       1.145541      0.818766     -1.180602
  C       1.429879     -0.041939      0.069140
  C       0.973281      0.729872      1.326020
  C      -0.530501      1.044441      1.237173
  C      -1.319129     -0.272798      1.133977
  C      -0.883720     -1.054497     -0.125076
  C      -1.146133     -0.185030     -1.373590
  C       0.628263     -1.359998     -0.032095
  N      -1.634689     -2.305355     -0.231570
  N       2.864082     -0.317524      0.158688
  H      -0.255662      2.846314      0.055460
  H      -1.864846      2.141568     -0.079927
  H      -0.551154      1.745083     -2.163924
  H       1.713966      1.757389     -1.137982
  H       1.469196      0.295569     -2.090200
  H       1.537871      1.666267      1.427808
  H       1.172086      0.142174      2.232088
  H      -0.845834      1.594083      2.131132
  H      -2.394607     -0.054196      1.097774
  H      -1.149962     -0.873664      2.037323
  H      -0.851751     -0.722387     -2.284879
  H      -2.217450      0.035951     -1.470429
  H       0.832324     -1.993086      0.843008
  H       0.952188     -1.931379     -0.913482
  H      -2.633751     -2.107176     -0.282729
  H      -1.501893     -2.864723      0.610468
  H       3.052624     -0.919285      0.959802
  H       3.165452     -0.842707     -0.662192
30
Coordinates from ORCA-job C:/Users/emanuele/Desktop/PlacementEssay/PlacementEssay/backup/ChemspeedPlatformAllVersions/V12/Workflows/DataAnalysisWorkflow/FeatureGeneration/calculationFiles/185118/geometryOptimization/185118 E -501.192933403605
  C      -0.789174      1.892029     -0.012407
  C      -0.357312      1.119641     -1.258678
  C       1.137983      0.806241     -1.164480
  C       1.422296     -0.043782      0.072329
  C       0.974744      0.728126      1.313561
  C      -0.520502      1.046528      1.231062
  C      -1.313819     -0.260155      1.128623
  C      -0.896810     -1.051890     -0.120128
  C      -1.148381     -0.188568     -1.354991
  C       0.602958     -1.343347     -0.028601
  N      -1.627021     -2.312900     -0.260287
  N       2.861368     -0.292114      0.158894
  H      -0.243283      2.836297      0.051329
  H      -1.851402      2.141358     -0.074810
  H      -0.546345      1.724628     -2.147622
  H       1.712799      1.732528     -1.116552
  H       1.462728      0.276686     -2.064566
  H       1.550200      1.651039      1.401341
  H       1.179273      0.140034      2.212783
  H      -0.826448      1.597719      2.123334
  H      -2.384454     -0.042431      1.088562
  H      -1.146628     -0.865617      2.023788
  H      -0.857988     -0.736811     -2.253046
  H      -2.216046      0.029275     -1.448079
  H       0.804672     -1.971902      0.844041
  H       0.917095     -1.912224     -0.906203
  H      -2.621595     -2.123930     -0.313501
  H      -1.494509     -2.874353      0.573194
  H       3.054011     -0.886696      0.957184
  H       3.161588     -0.815406     -0.656073
30
Coordinates from ORCA-job C:/Users/emanuele/Desktop/PlacementEssay/PlacementEssay/backup/ChemspeedPlatformAllVersions/V12/Workflows/DataAnalysisWorkflow/FeatureGeneration/calculationFiles/185118/geometryOptimization/185118 E -501.193215467808
  C      -0.786752      1.892801     -0.012141
  C      -0.358099      1.117129     -1.254853
  C       1.133861      0.802244     -1.161780
  C       1.419887     -0.045201      0.073210
  C       0.973401      0.726740      1.310574
  C      -0.518333      1.046700      1.229277
  C      -1.313725     -0.254976      1.128064
  C      -0.901351     -1.048855     -0.117436
  C      -1.150400     -0.185870     -1.349668
  C       0.595138     -1.336656     -0.026222
  N      -1.618615     -2.315252     -0.271367
  N       2.860880     -0.283744      0.159391
  H      -0.238594      2.835125      0.049163
  H      -1.847800      2.144962     -0.073541
  H      -0.545542      1.719309     -2.146026
  H       1.715579      1.722994     -1.110599
  H       1.459700      0.267893     -2.058388
  H       1.557544      1.643610      1.392486
  H       1.180650      0.135866      2.207239
  H      -0.821065      1.596805      2.122800
  H      -2.384431     -0.039123      1.084142
  H      -1.148484     -0.865948      2.019703
  H      -0.864268     -0.742979     -2.242558
  H      -2.218456      0.031031     -1.438854
  H       0.797153     -1.962703      0.848574
  H       0.905049     -1.907440     -0.903531
  H      -2.614563     -2.130590     -0.323797
  H      -1.483210     -2.878144      0.561581
  H       3.054131     -0.876656      0.959540
  H       3.160714     -0.809069     -0.654985
30
Coordinates from ORCA-job C:/Users/emanuele/Desktop/PlacementEssay/PlacementEssay/backup/ChemspeedPlatformAllVersions/V12/Workflows/DataAnalysisWorkflow/FeatureGeneration/calculationFiles/185118/geometryOptimization/185118 E -501.193251228737
  C      -0.786593      1.893721     -0.012377
  C      -0.358287      1.117780     -1.255377
  C       1.132928      0.802414     -1.162852
  C       1.419867     -0.045939      0.073080
  C       0.972248      0.726612      1.310927
  C      -0.518616      1.046561      1.229147
  C      -1.314626     -0.253841      1.128638
  C      -0.902111     -1.048004     -0.116731
  C      -1.151054     -0.183730     -1.349796
  C       0.594925     -1.335979     -0.025708
  N      -1.616014     -2.315963     -0.273570
  N       2.861335     -0.281895      0.159340
  H      -0.237825      2.835722      0.048844
  H      -1.847471      2.147001     -0.073511
  H      -0.545307      1.719476     -2.147327
  H       1.718069      1.721174     -1.109662
  H       1.459717      0.266457     -2.058401
  H       1.560267      1.641419      1.391258
  H       1.180429      0.134193      2.206684
  H      -0.821054      1.595834      2.123480
  H      -2.385766     -0.039158      1.082767
  H      -1.150815     -0.867305      2.019141
  H      -0.867718     -0.745219     -2.241072
  H      -2.219667      0.032779     -1.436546
  H       0.797163     -1.961004      0.850359
  H       0.903063     -1.908607     -0.902860
  H      -2.612692     -2.132138     -0.323249
  H      -1.478734     -2.878665      0.559601
  H       3.053949     -0.874544      0.960165
  H       3.160390     -0.809151     -0.654392
30
Coordinates from ORCA-job C:/Users/emanuele/Desktop/PlacementEssay/PlacementEssay/backup/ChemspeedPlatformAllVersions/V12/Workflows/DataAnalysisWorkflow/FeatureGeneration/calculationFiles/185118/geometryOptimization/185118 E -501.193260909554
  C      -0.786900      1.894146     -0.012647
  C      -0.358155      1.118621     -1.256242
  C       1.132772      0.803423     -1.163882
  C       1.420021     -0.046334      0.072711
  C       0.971358      0.726798      1.311413
  C      -0.519097      1.046446      1.229049
  C      -1.315140     -0.253646      1.128999
  C      -0.901930     -1.047703     -0.116687
  C      -1.150964     -0.182405     -1.350673
  C       0.595886     -1.336353     -0.025928
  N      -1.615528     -2.315889     -0.273940
  N       2.861624     -0.281182      0.159143
  H      -0.238105      2.836139      0.048986
  H      -1.847777      2.147685     -0.073736
  H      -0.545063      1.720434     -2.148316
  H       1.719925      1.720951     -1.108733
  H       1.460596      0.266916     -2.058826
  H       1.561661      1.640377      1.390983
  H       1.180121      0.133358      2.206521
  H      -0.821876      1.595284      2.123719
  H      -2.386533     -0.039860      1.081959
  H      -1.152338     -0.868390      2.018944
  H      -0.869660     -0.746787     -2.240940
  H      -2.219955      0.033583     -1.435540
  H       0.797966     -1.960958      0.850721
  H       0.902585     -1.910374     -0.902868
  H      -2.612584     -2.131850     -0.320047
  H      -1.476467     -2.878476      0.559238
  H       3.053609     -0.873651      0.960461
  H       3.159947     -0.810301     -0.653840
30
Coordinates from ORCA-job C:/Users/emanuele/Desktop/PlacementEssay/PlacementEssay/backup/ChemspeedPlatformAllVersions/V12/Workflows/DataAnalysisWorkflow/FeatureGeneration/calculationFiles/185118/geometryOptimization/185118 E -501.193261691515
  C      -0.787095      1.894072     -0.012736
  C      -0.358041      1.118821     -1.256462
  C       1.132857      0.803835     -1.164008
  C       1.419968     -0.046352      0.072543
  C       0.971187      0.726869      1.311448
  C      -0.519205      1.046478      1.228970
  C      -1.315055     -0.253783      1.128957
  C      -0.901655     -1.047679     -0.116867
  C      -1.150701     -0.182288     -1.350999
  C       0.596249     -1.336580     -0.026203
  N      -1.615969     -2.315550     -0.273796
  N       2.861588     -0.281172      0.159076
  H      -0.238443      2.836139      0.049100
  H      -1.848012      2.147391     -0.073878
  H      -0.545031      1.720870     -2.148349
  H       1.720217      1.721158     -1.108204
  H       1.461020      0.267440     -2.058879
  H       1.561790      1.640241      1.390912
  H       1.180043      0.133254      2.206403
  H      -0.822225      1.595403      2.123531
  H      -2.386461     -0.040170      1.081834
  H      -1.152344     -0.868524      2.018896
  H      -0.869713     -0.747121     -2.241067
  H      -2.219748      0.033469     -1.435483
  H       0.798104     -1.961297      0.850385
  H       0.902533     -1.910845     -0.903108
  H      -2.613051     -2.131219     -0.318173
  H      -1.476017     -2.878465      0.559028
  H       3.053481     -0.873363      0.960651
  H       3.159729     -0.811030     -0.653522
