# Input file for Orca calculation for diamine
!B97-3c LARGEPRINT Opt Freq
%MaxCore 900
%pal nprocs 5 end

* xyz 0 1
C     -0.797851    1.895366   -0.015273
C     -0.357821    1.132903   -1.275911
C      1.145541    0.818766   -1.180602
C      1.429879   -0.041939    0.069140
C      0.973281    0.729872    1.326020
C     -0.530501    1.044441    1.237173
C     -1.319129   -0.272798    1.133977
C     -0.883720   -1.054497   -0.125076
C     -1.146133   -0.185030   -1.373590
C      0.628263   -1.359998   -0.032095
N     -1.634689   -2.305355   -0.231570
N      2.864082   -0.317524    0.158688
H     -0.255662    2.846314    0.055460
H     -1.864846    2.141568   -0.079927
H     -0.551154    1.745083   -2.163924
H      1.713966    1.757389   -1.137982
H      1.469196    0.295569   -2.090200
H      1.537871    1.666267    1.427808
H      1.172086    0.142174    2.232088
H     -0.845834    1.594083    2.131132
H     -2.394607   -0.054196    1.097774
H     -1.149962   -0.873664    2.037323
H     -0.851751   -0.722387   -2.284879
H     -2.217450    0.035951   -1.470429
H      0.832324   -1.993086    0.843008
H      0.952188   -1.931379   -0.913482
H     -2.633751   -2.107176   -0.282729
H     -1.501893   -2.864723    0.610468
H      3.052624   -0.919285    0.959802
H      3.165452   -0.842707   -0.662192
*