# Input file for Orca single point energy calculation.
! RIJK RI-PWPB95 D3BJ def2-TZVP def2/JK def2-TZVP/C TIGHTSCF
%MaxCore 900
%pal nprocs 5 end

* xyz +1 2
C 2.048851 -1.127324 1.904196
O 2.239278 0.158685 1.309346
C 1.381622 0.73829 0.446771
C 1.78706 1.984125 -0.002685
C 1.021098 2.726345 -0.898482
C -0.175341 2.246782 -1.374526
C -0.631447 0.992355 -0.951888
C 0.139641 0.203703 -0.026437
N -0.286573 -1.005898 0.39084
C -1.436742 -1.476136 -0.060628
C -2.261835 -0.780228 -0.968187
C -1.852166 0.443652 -1.403676
C -1.820753 -2.806334 0.451364
O -2.83941 -3.39385 0.147856
H 1.148293 -1.15907 2.509727
H 2.926618 -1.265324 2.529403
H 1.995874 -1.910594 1.154123
H 2.72693 2.368438 0.366674
H 1.383007 3.694304 -1.218273
H -0.770191 2.823384 -2.070099
H -3.188359 -1.232454 -1.29062
H -2.452876 1.014659 -2.100385
H -1.082579 -3.237513 1.155587
*