13
Coordinates from ORCA-job C:/Users/emanuele/Desktop/PlacementEssay/PlacementEssay/backup/ChemspeedPlatformAllVersions/V12/Workflows/DataAnalysisWorkflow/FeatureGeneration/calculationFiles/3470896/geometryOptimization/3470896 E -721.489374530990
  C      -2.095384      0.319428      0.630000
  C      -0.804012     -0.076969      0.012838
  C      -0.623781     -0.966398     -1.030137
  S       1.043398     -1.109145     -1.403596
  C       1.398883      0.011909     -0.162299
  N       0.365265      0.481896      0.506860
  C       2.755986      0.414683      0.129037
  O       3.778427      0.031707     -0.438899
  H      -2.245809      1.398904      0.531201
  H      -2.939511     -0.188662      0.153324
  H      -2.099508      0.064656      1.694299
  H      -1.370260     -1.524922     -1.576949
  H       2.836305      1.142913      0.954320
13
Coordinates from ORCA-job C:/Users/emanuele/Desktop/PlacementEssay/PlacementEssay/backup/ChemspeedPlatformAllVersions/V12/Workflows/DataAnalysisWorkflow/FeatureGeneration/calculationFiles/3470896/geometryOptimization/3470896 E -721.491174241345
  C      -2.095154      0.317547      0.627827
  C      -0.799028     -0.075411      0.014094
  C      -0.618681     -0.960326     -1.023611
  S       1.045219     -1.119762     -1.416222
  C       1.400739      0.010979     -0.163800
  N       0.361270      0.473562      0.497813
  C       2.760287      0.419583      0.133976
  O       3.761870      0.026768     -0.442297
  H      -2.248294      1.391700      0.534656
  H      -2.931643     -0.189093      0.151774
  H      -2.103311      0.068679      1.687988
  H      -1.369165     -1.512320     -1.562581
  H       2.835890      1.148094      0.960381
13
Coordinates from ORCA-job C:/Users/emanuele/Desktop/PlacementEssay/PlacementEssay/backup/ChemspeedPlatformAllVersions/V12/Workflows/DataAnalysisWorkflow/FeatureGeneration/calculationFiles/3470896/geometryOptimization/3470896 E -721.491768285071
  C      -2.097253      0.314616      0.624810
  C      -0.794969     -0.072985      0.016439
  C      -0.616902     -0.955324     -1.018172
  S       1.044054     -1.128062     -1.425371
  C       1.405563      0.014279     -0.160568
  N       0.360865      0.467663      0.491166
  C       2.770822      0.424909      0.139127
  O       3.752195      0.019302     -0.449392
  H      -2.254049      1.387663      0.537165
  H      -2.928228     -0.193962      0.145548
  H      -2.109921      0.070603      1.684999
  H      -1.373827     -1.503363     -1.552033
  H       2.841648      1.154661      0.966280
13
Coordinates from ORCA-job C:/Users/emanuele/Desktop/PlacementEssay/PlacementEssay/backup/ChemspeedPlatformAllVersions/V12/Workflows/DataAnalysisWorkflow/FeatureGeneration/calculationFiles/3470896/geometryOptimization/3470896 E -721.491830319067
  C      -2.098808      0.313585      0.623877
  C      -0.794793     -0.071596      0.017858
  C      -0.617394     -0.954772     -1.017204
  S       1.042596     -1.128203     -1.426384
  C       1.407004      0.017825     -0.157526
  N       0.362049      0.468684      0.491593
  C       2.775009      0.426420      0.138845
  O       3.753131      0.015449     -0.452472
  H      -2.257547      1.387091      0.537143
  H      -2.927866     -0.196986      0.142416
  H      -2.113176      0.070431      1.684920
  H      -1.375521     -1.502710     -1.550300
  H       2.845313      1.154780      0.967234
13
Coordinates from ORCA-job C:/Users/emanuele/Desktop/PlacementEssay/PlacementEssay/backup/ChemspeedPlatformAllVersions/V12/Workflows/DataAnalysisWorkflow/FeatureGeneration/calculationFiles/3470896/geometryOptimization/3470896 E -721.491840693653
  C      -2.100130      0.312985      0.623041
  C      -0.794857     -0.070679      0.019936
  C      -0.617315     -0.953788     -1.016796
  S       1.041845     -1.129618     -1.424469
  C       1.407797      0.019077     -0.151743
  N       0.363109      0.468754      0.494923
  C       2.778251      0.422445      0.141434
  O       3.753648      0.015646     -0.458968
  H      -2.259883      1.387013      0.537541
  H      -2.927147     -0.198389      0.138016
  H      -2.117542      0.069110      1.684456
  H      -1.376157     -1.500521     -1.550660
  H       2.848379      1.157965      0.963287
13
Coordinates from ORCA-job C:/Users/emanuele/Desktop/PlacementEssay/PlacementEssay/backup/ChemspeedPlatformAllVersions/V12/Workflows/DataAnalysisWorkflow/FeatureGeneration/calculationFiles/3470896/geometryOptimization/3470896 E -721.491843164768
  C      -2.100790      0.312346      0.623001
  C      -0.795126     -0.069312      0.020531
  C      -0.616750     -0.953587     -1.016114
  S       1.041496     -1.127570     -1.425040
  C       1.407337      0.024271     -0.151840
  N       0.363065      0.472265      0.494709
  C       2.778574      0.427472      0.135565
  O       3.754444      0.009025     -0.457026
  H      -2.263090      1.386161      0.536711
  H      -2.926225     -0.201475      0.137464
  H      -2.118539      0.069159      1.684803
  H      -1.375589     -1.501547     -1.548895
  H       2.851192      1.152791      0.966129
13
Coordinates from ORCA-job C:/Users/emanuele/Desktop/PlacementEssay/PlacementEssay/backup/ChemspeedPlatformAllVersions/V12/Workflows/DataAnalysisWorkflow/FeatureGeneration/calculationFiles/3470896/geometryOptimization/3470896 E -721.491854235207
  C      -2.100265      0.312904      0.623163
  C      -0.795133     -0.069935      0.019696
  C      -0.616491     -0.954046     -1.016087
  S       1.042076     -1.126614     -1.425986
  C       1.407092      0.021766     -0.152699
  N       0.362438      0.471084      0.494223
  C       2.777377      0.424917      0.137967
  O       3.753525      0.012007     -0.456922
  H      -2.261606      1.386492      0.536570
  H      -2.926671     -0.199930      0.138751
  H      -2.117275      0.069587      1.684595
  H      -1.375076     -1.502135     -1.548800
  H       2.850007      1.153902      0.965527
13
Coordinates from ORCA-job C:/Users/emanuele/Desktop/PlacementEssay/PlacementEssay/backup/ChemspeedPlatformAllVersions/V12/Workflows/DataAnalysisWorkflow/FeatureGeneration/calculationFiles/3470896/geometryOptimization/3470896 E -721.491854069510
  C      -2.100355      0.312742      0.623257
  C      -0.795156     -0.070420      0.020160
  C      -0.616317     -0.953205     -1.016637
  S       1.042611     -1.129448     -1.423173
  C       1.407063      0.021426     -0.151928
  N       0.362330      0.470250      0.495216
  C       2.777285      0.424995      0.137673
  O       3.753158      0.012417     -0.457799
  H      -2.261120      1.386429      0.537298
  H      -2.926764     -0.199251      0.137982
  H      -2.118194      0.068572      1.684443
  H      -1.375086     -1.500056     -1.550352
  H       2.850543      1.155549      0.963858
13
Coordinates from ORCA-job C:/Users/emanuele/Desktop/PlacementEssay/PlacementEssay/backup/ChemspeedPlatformAllVersions/V12/Workflows/DataAnalysisWorkflow/FeatureGeneration/calculationFiles/3470896/geometryOptimization/3470896 E -721.491855098245
  C      -2.100491      0.312768      0.623133
  C      -0.795242     -0.070052      0.020012
  C      -0.616127     -0.953569     -1.016177
  S       1.042481     -1.127543     -1.424578
  C       1.406999      0.022036     -0.151807
  N       0.362201      0.470964      0.494956
  C       2.777409      0.424725      0.137744
  O       3.753082      0.011759     -0.457868
  H      -2.261841      1.386350      0.536769
  H      -2.926686     -0.199845      0.138102
  H      -2.118161      0.068964      1.684421
  H      -1.374878     -1.501100     -1.549245
  H       2.851254      1.154543      0.964535
