# Input file for Orca calculation for diamine
!B97-3c LARGEPRINT Opt Freq
%MaxCore 900
%pal nprocs 5 end

* xyz 0 1
C     -2.095384    0.319428    0.630000
C     -0.804012   -0.076969    0.012838
C     -0.623781   -0.966398   -1.030137
S      1.043398   -1.109145   -1.403596
C      1.398883    0.011909   -0.162299
N      0.365265    0.481896    0.506860
C      2.755986    0.414683    0.129037
O      3.778427    0.031707   -0.438899
H     -2.245809    1.398904    0.531201
H     -2.939511   -0.188662    0.153324
H     -2.099508    0.064656    1.694299
H     -1.370260   -1.524922   -1.576949
H      2.836305    1.142913    0.954320
*