19
Coordinates from ORCA-job C:/Users/emanuele/Desktop/PlacementEssay/PlacementEssay/backup/ChemspeedPlatformAllVersions/V12/Workflows/DataAnalysisWorkflow/FeatureGeneration/calculationFiles/71926/geometryOptimization/71926 E -515.003969479865
  C      -1.834923     -2.025404     -1.104256
  C      -2.598365     -0.885423     -0.879967
  C      -1.989685      0.277573     -0.398431
  C      -0.628118      0.332628     -0.132894
  C       0.143530     -0.829304     -0.362685
  C      -0.465894     -1.999618     -0.846689
  C       1.518160     -0.774819     -0.094952
  C       2.081241      0.402090      0.382711
  C       1.240642      1.485993      0.575074
  N      -0.092285      1.475574      0.328982
  C       1.776517      2.767276      1.081048
  O       2.961603      2.930540      1.348926
  H      -2.303651     -2.932117     -1.478620
  H      -3.667333     -0.895215     -1.077786
  H      -2.596087      1.163904     -0.226385
  H       0.122879     -2.896677     -1.025367
  H       2.152394     -1.643093     -0.256176
  H       3.142657      0.470435      0.597813
  H       1.036716      3.575656      1.203954
19
Coordinates from ORCA-job C:/Users/emanuele/Desktop/PlacementEssay/PlacementEssay/backup/ChemspeedPlatformAllVersions/V12/Workflows/DataAnalysisWorkflow/FeatureGeneration/calculationFiles/71926/geometryOptimization/71926 E -515.007639287963
  C      -1.824739     -2.017125     -1.099840
  C      -2.591115     -0.867334     -0.872859
  C      -1.997700      0.284143     -0.397773
  C      -0.622325      0.329936     -0.132675
  C       0.155166     -0.845204     -0.365645
  C      -0.467620     -2.008199     -0.849810
  C       1.531943     -0.784913     -0.095602
  C       2.079054      0.385474      0.377112
  C       1.233670      1.482801      0.572860
  N      -0.079266      1.475836      0.331489
  C       1.764809      2.766311      1.078505
  O       2.938705      2.945551      1.349403
  H      -2.296362     -2.916694     -1.472462
  H      -3.654508     -0.876603     -1.069433
  H      -2.594454      1.169317     -0.224345
  H       0.114599     -2.902819     -1.028902
  H       2.162903     -1.649843     -0.256343
  H       3.133913      0.463652      0.594126
  H       1.013324      3.565713      1.196494
19
Coordinates from ORCA-job C:/Users/emanuele/Desktop/PlacementEssay/PlacementEssay/backup/ChemspeedPlatformAllVersions/V12/Workflows/DataAnalysisWorkflow/FeatureGeneration/calculationFiles/71926/geometryOptimization/71926 E -515.008442044253
  C      -1.821366     -2.013548     -1.098124
  C      -2.588752     -0.856998     -0.869132
  C      -2.003067      0.286545     -0.397949
  C      -0.618429      0.323875     -0.133893
  C       0.161828     -0.856119     -0.367941
  C      -0.472831     -2.014392     -0.852770
  C       1.541958     -0.788575     -0.094967
  C       2.079206      0.376128      0.374244
  C       1.229705      1.482250      0.572059
  N      -0.070012      1.471220      0.331732
  C       1.761897      2.767567      1.078569
  O       2.928438      2.961111      1.352285
  H      -2.298092     -2.909688     -1.470614
  H      -3.651580     -0.868398     -1.066221
  H      -2.587755      1.177384     -0.220497
  H       0.110167     -2.908069     -1.031460
  H       2.169179     -1.655429     -0.256977
  H       3.132102      0.467028      0.595025
  H       0.997403      3.558109      1.190931
19
Coordinates from ORCA-job C:/Users/emanuele/Desktop/PlacementEssay/PlacementEssay/backup/ChemspeedPlatformAllVersions/V12/Workflows/DataAnalysisWorkflow/FeatureGeneration/calculationFiles/71926/geometryOptimization/71926 E -515.008515767843
  C      -1.822628     -2.014205     -1.098339
  C      -2.590177     -0.856850     -0.869328
  C      -2.003791      0.286509     -0.398292
  C      -0.617942      0.321522     -0.134791
  C       0.162308     -0.857214     -0.368256
  C      -0.474583     -2.015218     -0.853164
  C       1.543466     -0.788116     -0.094658
  C       2.080478      0.375734      0.374017
  C       1.229581      1.483088      0.571807
  N      -0.069512      1.469159      0.330740
  C       1.763712      2.768557      1.078317
  O       2.929142      2.963872      1.354402
  H      -2.301294     -2.909675     -1.470803
  H      -3.653273     -0.870736     -1.067227
  H      -2.582457      1.181213     -0.218659
  H       0.111411     -2.907796     -1.030819
  H       2.167709     -1.657470     -0.257879
  H       3.133066      0.471998      0.596363
  H       0.994782      3.555627      1.190869
19
Coordinates from ORCA-job C:/Users/emanuele/Desktop/PlacementEssay/PlacementEssay/backup/ChemspeedPlatformAllVersions/V12/Workflows/DataAnalysisWorkflow/FeatureGeneration/calculationFiles/71926/geometryOptimization/71926 E -515.008522345901
  C      -1.823613     -2.014159     -1.100035
  C      -2.591561     -0.856946     -0.869783
  C      -2.003969      0.286000     -0.397027
  C      -0.617724      0.318533     -0.133949
  C       0.162419     -0.857426     -0.367953
  C      -0.475473     -2.014903     -0.854523
  C       1.544233     -0.787800     -0.093726
  C       2.081349      0.374913      0.376312
  C       1.228466      1.482351      0.574988
  N      -0.070566      1.466052      0.332734
  C       1.763842      2.766640      1.084428
  O       2.931263      2.967022      1.347673
  H      -2.304492     -2.908193     -1.473715
  H      -3.654661     -0.874472     -1.069082
  H      -2.574787      1.185275     -0.213467
  H       0.114852     -2.905293     -1.031754
  H       2.164060     -1.660333     -0.259678
  H       3.133113      0.477868      0.601389
  H       0.993248      3.554871      1.181469
19
Coordinates from ORCA-job C:/Users/emanuele/Desktop/PlacementEssay/PlacementEssay/backup/ChemspeedPlatformAllVersions/V12/Workflows/DataAnalysisWorkflow/FeatureGeneration/calculationFiles/71926/geometryOptimization/71926 E -515.008523171631
  C      -1.824472     -2.014811     -1.097988
  C      -2.592224     -0.857189     -0.869719
  C      -2.003147      0.286596     -0.398972
  C      -0.617053      0.318064     -0.136723
  C       0.162411     -0.856697     -0.368288
  C      -0.475881     -2.015070     -0.852624
  C       1.544491     -0.787285     -0.094632
  C       2.082549      0.375983      0.373110
  C       1.228840      1.483697      0.569841
  N      -0.070648      1.466428      0.327895
  C       1.765709      2.768952      1.075177
  O       2.929569      2.962454      1.358612
  H      -2.307265     -2.908588     -1.469951
  H      -3.655237     -0.877615     -1.069551
  H      -2.568293      1.189465     -0.214862
  H       0.116971     -2.904471     -1.027425
  H       2.160649     -1.662607     -0.260700
  H       3.133845      0.483886      0.598543
  H       0.989183      3.548806      1.192557
19
Coordinates from ORCA-job C:/Users/emanuele/Desktop/PlacementEssay/PlacementEssay/backup/ChemspeedPlatformAllVersions/V12/Workflows/DataAnalysisWorkflow/FeatureGeneration/calculationFiles/71926/geometryOptimization/71926 E -515.008552297455
  C      -1.823221     -2.014153     -1.098533
  C      -2.591125     -0.856962     -0.869553
  C      -2.003510      0.286424     -0.398173
  C      -0.617705      0.319644     -0.135229
  C       0.162248     -0.856628     -0.368059
  C      -0.474845     -2.014829     -0.853176
  C       1.543830     -0.787891     -0.094477
  C       2.081352      0.375526      0.374270
  C       1.228796      1.482730      0.571801
  N      -0.070592      1.467670      0.330294
  C       1.764108      2.767746      1.078601
  O       2.929745      2.963030      1.353692
  H      -2.304279     -2.908419     -1.471137
  H      -3.654063     -0.875026     -1.068777
  H      -2.574286      1.185805     -0.215538
  H       0.115189     -2.905346     -1.029510
  H       2.163109     -1.660740     -0.259771
  H       3.133034      0.478740      0.598720
  H       0.992211      3.552677      1.188855
19
Coordinates from ORCA-job C:/Users/emanuele/Desktop/PlacementEssay/PlacementEssay/backup/ChemspeedPlatformAllVersions/V12/Workflows/DataAnalysisWorkflow/FeatureGeneration/calculationFiles/71926/geometryOptimization/71926 E -515.008552877409
  C      -1.823185     -2.014116     -1.098586
  C      -2.591212     -0.856975     -0.869576
  C      -2.003599      0.286390     -0.398130
  C      -0.617776      0.319522     -0.135203
  C       0.162211     -0.856510     -0.368018
  C      -0.474808     -2.014789     -0.853223
  C       1.543865     -0.787904     -0.094448
  C       2.081395      0.375448      0.374365
  C       1.228701      1.482604      0.571908
  N      -0.070738      1.467619      0.330391
  C       1.764115      2.767561      1.078881
  O       2.929896      2.962917      1.353325
  H      -2.304516     -2.908233     -1.471248
  H      -3.654121     -0.875618     -1.068983
  H      -2.573556      1.186246     -0.215142
  H       0.115617     -2.905086     -1.029467
  H       2.162571     -1.661131     -0.260006
  H       3.132959      0.479482      0.599099
  H       0.992179      3.552571      1.188360
