# Input file for Orca calculation for diamine
!B97-3c LARGEPRINT Opt Freq
%MaxCore 900
%pal nprocs 5 end

* xyz 0 1
C     -1.834923   -2.025404   -1.104256
C     -2.598365   -0.885423   -0.879967
C     -1.989685    0.277573   -0.398431
C     -0.628118    0.332628   -0.132894
C      0.143530   -0.829304   -0.362685
C     -0.465894   -1.999618   -0.846689
C      1.518160   -0.774819   -0.094952
C      2.081241    0.402090    0.382711
C      1.240642    1.485993    0.575074
N     -0.092285    1.475574    0.328982
C      1.776517    2.767276    1.081048
O      2.961603    2.930540    1.348926
H     -2.303651   -2.932117   -1.478620
H     -3.667333   -0.895215   -1.077786
H     -2.596087    1.163904   -0.226385
H      0.122879   -2.896677   -1.025367
H      2.152394   -1.643093   -0.256176
H      3.142657    0.470435    0.597813
H      1.036716    3.575656    1.203954
*