47
Coordinates from ORCA-job C:/Users/emanuele/Desktop/PlacementEssay/PlacementEssay/backup/ChemspeedPlatformAllVersions/V12/Workflows/DataAnalysisWorkflow/FeatureGeneration/calculationFiles/548388/geometryOptimization/548388 E -1073.708297706135
  C      -3.867905     -0.370627     -2.140807
  C      -2.683815     -0.537104     -2.874319
  C      -1.439382     -0.431355     -2.250833
  C      -1.400273     -0.155888     -0.886407
  C      -2.592659      0.009672     -0.148672
  C      -3.827777     -0.095858     -0.770795
  C      -2.268183      0.282626      1.232700
  C      -3.102712      0.512608      2.316379
  C      -2.527295      0.755189      3.567016
  C      -1.133548      0.766652      3.725639
  C      -0.291250      0.535422      2.636788
  C      -0.865297      0.292125      1.391660
  C      -0.155068      0.009326      0.034584
  C       0.712172      1.255124     -0.313156
  C       0.211966      2.330886     -1.068397
  C       1.000170      3.456295     -1.341829
  C       2.287676      3.573832     -0.821437
  C       2.810012      2.503382     -0.098982
  C       2.027358      1.376471      0.178705
  N       3.108516      4.643273     -1.196743
  C       0.629332     -1.335788      0.013989
  C       0.376765     -2.366284      0.937108
  C       1.072408     -3.580923      0.879619
  C       1.995719     -3.831406     -0.133817
  C       2.281455     -2.809546     -1.036477
  C       1.589167     -1.593939     -0.985231
  N       2.770216     -4.996786     -0.114298
  H      -4.827734     -0.458302     -2.644461
  H      -2.736535     -0.752219     -3.939058
  H      -0.527793     -0.558922     -2.825374
  H      -4.750721      0.029369     -0.214651
  H      -4.181953      0.507778      2.206746
  H      -3.166622      0.939026      4.427300
  H      -0.705520      0.959198      4.706682
  H       0.785843      0.543403      2.767830
  H      -0.802230      2.318297     -1.461290
  H       0.586422      4.247550     -1.961374
  H       3.833521      2.535353      0.264618
  H       2.468368      0.582147      0.778638
  H       2.595280      5.488766     -1.424979
  H       3.870449      4.818258     -0.549416
  H      -0.366893     -2.247987      1.722027
  H       0.872565     -4.335282      1.636000
  H       3.043675     -2.948897     -1.798316
  H       1.822164     -0.840145     -1.735475
  H       2.309071     -5.783684      0.331235
  H       3.160880     -5.241083     -1.018673
47
Coordinates from ORCA-job C:/Users/emanuele/Desktop/PlacementEssay/PlacementEssay/backup/ChemspeedPlatformAllVersions/V12/Workflows/DataAnalysisWorkflow/FeatureGeneration/calculationFiles/548388/geometryOptimization/548388 E -1073.715709975706
  C      -3.829691     -0.369480     -2.155609
  C      -2.645511     -0.530525     -2.873080
  C      -1.410376     -0.423963     -2.238574
  C      -1.379836     -0.151006     -0.883683
  C      -2.569153      0.008746     -0.158152
  C      -3.799792     -0.099541     -0.791689
  C      -2.242744      0.282906      1.229683
  C      -3.067435      0.518370      2.321497
  C      -2.485309      0.754457      3.562210
  C      -1.098897      0.756581      3.706530
  C      -0.270376      0.522313      2.611861
  C      -0.848458      0.283072      1.379134
  C      -0.160488      0.008092      0.034941
  C       0.698084      1.217407     -0.323090
  C       0.195931      2.279396     -1.071687
  C       0.968141      3.402518     -1.337959
  C       2.265814      3.512362     -0.840437
  C       2.779794      2.445961     -0.103268
  C       2.002560      1.327491      0.160379
  N       3.071901      4.602470     -1.178234
  C       0.624392     -1.300250      0.026179
  C       0.371719     -2.315570      0.945772
  C       1.052346     -3.524803      0.889956
  C       1.994842     -3.769462     -0.107700
  C       2.263117     -2.751595     -1.022457
  C       1.578446     -1.546482     -0.962048
  N       2.740580     -4.951018     -0.113245
  H      -4.780432     -0.457979     -2.665497
  H      -2.687638     -0.742797     -3.933581
  H      -0.495645     -0.551238     -2.801459
  H      -4.724807      0.022056     -0.243110
  H      -4.144948      0.520492      2.219458
  H      -3.113275      0.940701      4.424000
  H      -0.663015      0.944664      4.679215
  H       0.804574      0.526527      2.730751
  H      -0.813381      2.251968     -1.458502
  H       0.546466      4.199316     -1.938806
  H       3.795537      2.482167      0.271977
  H       2.435847      0.525952      0.743362
  H       2.554440      5.441851     -1.380905
  H       3.814349      4.777277     -0.521251
  H      -0.366831     -2.182601      1.724265
  H       0.839186     -4.282074      1.634845
  H       3.012416     -2.893913     -1.792001
  H       1.810154     -0.785878     -1.695436
  H       2.267851     -5.730823      0.313221
  H       3.109558     -5.194112     -1.017782
47
Coordinates from ORCA-job C:/Users/emanuele/Desktop/PlacementEssay/PlacementEssay/backup/ChemspeedPlatformAllVersions/V12/Workflows/DataAnalysisWorkflow/FeatureGeneration/calculationFiles/548388/geometryOptimization/548388 E -1073.716275214678
  C      -3.803616     -0.388216     -2.163408
  C      -2.618393     -0.551397     -2.873519
  C      -1.387500     -0.440202     -2.233837
  C      -1.359590     -0.157497     -0.883806
  C      -2.549984      0.003517     -0.164487
  C      -3.778658     -0.111131     -0.803217
  C      -2.222581      0.288189      1.225692
  C      -3.042918      0.533448      2.320079
  C      -2.457644      0.775446      3.555498
  C      -1.073321      0.775216      3.694159
  C      -0.250921      0.533292      2.597831
  C      -0.829907      0.285184      1.370438
  C      -0.147245      0.005738      0.032099
  C       0.708323      1.211957     -0.333298
  C       0.201230      2.266678     -1.083058
  C       0.953926      3.401614     -1.334712
  C       2.248086      3.527419     -0.830544
  C       2.760538      2.472363     -0.073911
  C       1.999298      1.343990      0.171461
  N       3.034720      4.638073     -1.138203
  C       0.638488     -1.299216      0.030522
  C       0.388169     -2.304931      0.956575
  C       1.045645     -3.522364      0.896616
  C       1.976902     -3.783262     -0.108094
  C       2.228455     -2.778111     -1.043268
  C       1.565229     -1.566367     -0.973759
  N       2.692223     -4.981059     -0.131762
  H      -4.751855     -0.481162     -2.676001
  H      -2.654982     -0.769718     -3.932474
  H      -0.470081     -0.570827     -2.791110
  H      -4.705155      0.011680     -0.257470
  H      -4.120598      0.537958      2.220122
  H      -3.082034      0.968734      4.417652
  H      -0.632898      0.968160      4.663270
  H       0.824367      0.537273      2.711494
  H      -0.801318      2.215961     -1.482001
  H       0.526781      4.197235     -1.932954
  H       3.765879      2.530606      0.325370
  H       2.432683      0.545588      0.756467
  H       2.505496      5.470095     -1.340976
  H       3.758311      4.826295     -0.464059
  H      -0.333285     -2.149273      1.745352
  H       0.830821     -4.276171      1.644300
  H       2.952621     -2.941392     -1.832267
  H       1.791001     -0.810641     -1.712302
  H       2.213046     -5.751961      0.303637
  H       3.032251     -5.236808     -1.044142
47
Coordinates from ORCA-job C:/Users/emanuele/Desktop/PlacementEssay/PlacementEssay/backup/ChemspeedPlatformAllVersions/V12/Workflows/DataAnalysisWorkflow/FeatureGeneration/calculationFiles/548388/geometryOptimization/548388 E -1073.716322200724
  C      -3.809969     -0.397800     -2.162120
  C      -2.624578     -0.563099     -2.870786
  C      -1.394819     -0.449672     -2.229967
  C      -1.366121     -0.161567     -0.881176
  C      -2.557366      0.001885     -0.163630
  C      -3.785612     -0.115772     -0.803433
  C      -2.229250      0.292207      1.227358
  C      -3.048138      0.543113      2.322002
  C      -2.462174      0.789507      3.555679
  C      -1.078103      0.788268      3.693334
  C      -0.257696      0.541775      2.596927
  C      -0.836316      0.288466      1.370494
  C      -0.154611      0.004953      0.033723
  C       0.703486      1.209304     -0.336994
  C       0.190158      2.278553     -1.061593
  C       0.944570      3.411677     -1.311497
  C       2.252283      3.519208     -0.837541
  C       2.771545      2.448412     -0.106474
  C       2.007428      1.322970      0.137375
  N       3.039412      4.628507     -1.142653
  C       0.636088     -1.298229      0.035710
  C       0.369332     -2.317058      0.942648
  C       1.028808     -3.532347      0.880308
  C       1.987085     -3.776667     -0.103658
  C       2.256258     -2.757104     -1.019402
  C       1.589760     -1.548585     -0.947197
  N       2.702834     -4.972556     -0.129902
  H      -4.758163     -0.492810     -2.674684
  H      -2.659615     -0.785010     -3.929156
  H      -0.476874     -0.582273     -2.785968
  H      -4.711953      0.008296     -0.257433
  H      -4.125893      0.548811      2.221454
  H      -3.086115      0.986968      4.417371
  H      -0.635986      0.984253      4.661188
  H       0.817790      0.545304      2.709409
  H      -0.821186      2.236479     -1.439215
  H       0.512055      4.221569     -1.886598
  H       3.786316      2.494922      0.270300
  H       2.447486      0.507315      0.693832
  H       2.514209      5.469101     -1.320275
  H       3.779496      4.802430     -0.482316
  H      -0.370416     -2.169493      1.716106
  H       0.798313     -4.299351      1.609940
  H       2.999812     -2.909645     -1.792581
  H       1.835249     -0.776809     -1.663248
  H       2.216362     -5.752224      0.281765
  H       3.064824     -5.216180     -1.037430
47
Coordinates from ORCA-job C:/Users/emanuele/Desktop/PlacementEssay/PlacementEssay/backup/ChemspeedPlatformAllVersions/V12/Workflows/DataAnalysisWorkflow/FeatureGeneration/calculationFiles/548388/geometryOptimization/548388 E -1073.716380055750
  C      -3.805668     -0.394778     -2.164432
  C      -2.619909     -0.560064     -2.873421
  C      -1.390296     -0.447652     -2.232070
  C      -1.361806     -0.161233     -0.882479
  C      -2.553517      0.002692     -0.164991
  C      -3.781493     -0.113684     -0.805242
  C      -2.225532      0.291421      1.226462
  C      -3.044361      0.541771      2.321090
  C      -2.458405      0.786900      3.555360
  C      -1.073922      0.784499      3.693673
  C      -0.253517      0.538383      2.597146
  C      -0.832188      0.287161      1.369812
  C      -0.149987      0.004375      0.032767
  C       0.707297      1.211007     -0.336194
  C       0.194276      2.275323     -1.069398
  C       0.945001      3.411395     -1.318163
  C       2.247490      3.528988     -0.831787
  C       2.766546      2.463910     -0.091983
  C       2.006473      1.335001      0.150569
  N       3.031866      4.639659     -1.137106
  C       0.639286     -1.300587      0.033690
  C       0.378781     -2.314008      0.949371
  C       1.034366     -3.531682      0.887630
  C       1.979879     -3.785827     -0.106414
  C       2.242664     -2.772481     -1.031130
  C       1.580583     -1.561102     -0.959493
  N       2.693376     -4.982601     -0.131444
  H      -4.754008     -0.488796     -2.677136
  H      -2.654550     -0.781092     -3.932060
  H      -0.471915     -0.580290     -2.787706
  H      -4.707642      0.010433     -0.258872
  H      -4.122066      0.548153      2.219734
  H      -3.082713      0.983959      4.417016
  H      -0.631673      0.979245      4.661794
  H       0.822176      0.541017      2.709552
  H      -0.813957      2.224887     -1.455310
  H       0.514423      4.216367     -1.901676
  H       3.777789      2.518926      0.293229
  H       2.444379      0.525443      0.717848
  H       2.505239      5.476983     -1.325471
  H       3.766180      4.821580     -0.472561
  H      -0.352351     -2.158176      1.729921
  H       0.811277     -4.293532      1.625010
  H       2.977211     -2.933409     -1.811278
  H       1.817399     -0.795529     -1.685334
  H       2.211521     -5.758824      0.291931
  H       3.046007     -5.234129     -1.040457
47
Coordinates from ORCA-job C:/Users/emanuele/Desktop/PlacementEssay/PlacementEssay/backup/ChemspeedPlatformAllVersions/V12/Workflows/DataAnalysisWorkflow/FeatureGeneration/calculationFiles/548388/geometryOptimization/548388 E -1073.716388070547
  C      -3.805479     -0.393327     -2.165138
  C      -2.619619     -0.559041     -2.874261
  C      -1.390140     -0.447215     -2.232618
  C      -1.361532     -0.161264     -0.882756
  C      -2.553427      0.003141     -0.165365
  C      -3.781241     -0.112533     -0.805817
  C      -2.225361      0.291518      1.226230
  C      -3.043911      0.542155      2.320863
  C      -2.457857      0.786817      3.555263
  C      -1.073178      0.783660      3.693727
  C      -0.253095      0.537204      2.597088
  C      -0.831866      0.286588      1.369482
  C      -0.149731      0.003835      0.032515
  C       0.707469      1.210739     -0.335738
  C       0.193916      2.275097     -1.069136
  C       0.944086      3.411354     -1.317983
  C       2.246201      3.530116     -0.830330
  C       2.765942      2.464973     -0.090790
  C       2.006452      1.335730      0.151928
  N       3.030218      4.640292     -1.136220
  C       0.639372     -1.301068      0.033012
  C       0.379541     -2.314057      0.949825
  C       1.035106     -3.531643      0.888659
  C       1.979028     -3.787097     -0.106802
  C       2.241551     -2.774159     -1.032319
  C       1.579513     -1.562761     -0.961346
  N       2.692986     -4.983063     -0.130964
  H      -4.753963     -0.486696     -2.677737
  H      -2.653941     -0.779842     -3.932948
  H      -0.471495     -0.580162     -2.787851
  H      -4.707054      0.011982     -0.258951
  H      -4.121561      0.549008      2.218853
  H      -3.082304      0.984039      4.416806
  H      -0.630559      0.977982      4.661753
  H       0.822713      0.539143      2.709051
  H      -0.814420      2.222419     -1.454685
  H       0.514484      4.216466     -1.902064
  H       3.777297      2.521720      0.293928
  H       2.443290      0.526368      0.720436
  H       2.504654      5.477805     -1.326819
  H       3.765258      4.823468     -0.472799
  H      -0.351119     -2.155926      1.730452
  H       0.813944     -4.293368      1.626778
  H       2.975834     -2.936939     -1.812357
  H       1.814271     -0.797536     -1.688315
  H       2.213649     -5.759575      0.294787
  H       3.046083     -5.236346     -1.039331
47
Coordinates from ORCA-job C:/Users/emanuele/Desktop/PlacementEssay/PlacementEssay/backup/ChemspeedPlatformAllVersions/V12/Workflows/DataAnalysisWorkflow/FeatureGeneration/calculationFiles/548388/geometryOptimization/548388 E -1073.716390070492
  C      -3.805866     -0.392734     -2.165186
  C      -2.620049     -0.558900     -2.874388
  C      -1.390560     -0.447403     -2.232738
  C      -1.361745     -0.161399     -0.882834
  C      -2.553638      0.003353     -0.165431
  C      -3.781438     -0.111936     -0.805871
  C      -2.225552      0.291740      1.226074
  C      -3.044039      0.542713      2.320618
  C      -2.458053      0.787259      3.555073
  C      -1.073323      0.783699      3.693673
  C      -0.253310      0.536881      2.597091
  C      -0.832037      0.286349      1.369376
  C      -0.149832      0.003465      0.032411
  C       0.707341      1.210482     -0.335492
  C       0.193304      2.275340     -1.068175
  C       0.943410      3.411456     -1.317073
  C       2.245871      3.529818     -0.829936
  C       2.766148      2.464161     -0.091417
  C       2.006705      1.334993      0.151470
  N       3.029740      4.639738     -1.135788
  C       0.639227     -1.301299      0.032674
  C       0.379192     -2.314506      0.949435
  C       1.035074     -3.531795      0.888539
  C       1.979317     -3.786971     -0.106811
  C       2.242241     -2.773801     -1.032074
  C       1.579828     -1.562673     -0.961472
  N       2.693500     -4.982454     -0.130784
  H      -4.754481     -0.485763     -2.677595
  H      -2.654275     -0.779737     -3.933055
  H      -0.471819     -0.580623     -2.787741
  H      -4.706960      0.012998     -0.258598
  H      -4.121642      0.549758      2.218090
  H      -3.082650      0.984712      4.416447
  H      -0.630551      0.977923      4.661633
  H       0.822522      0.538386      2.708808
  H      -0.815476      2.221876     -1.452388
  H       0.514339      4.217409     -1.900402
  H       3.777966      2.521429      0.292020
  H       2.443008      0.525024      0.719492
  H       2.505134      5.477623     -1.327224
  H       3.766021      4.822879     -0.473787
  H      -0.352160     -2.155545      1.729211
  H       0.814402     -4.294191      1.626128
  H       2.977248     -2.937214     -1.811303
  H       1.814090     -0.796965     -1.688073
  H       2.215745     -5.759442      0.295801
  H       3.048087     -5.236109     -1.038431
