# Input file for Orca single point energy calculation.
! RIJK RI-PWPB95 D3BJ def2-TZVP def2/JK def2-TZVP/C TIGHTSCF
%MaxCore 900
%pal nprocs 5 end

* xyz +1 2
C -0.787095 1.894072 -0.012736
C -0.358041 1.118821 -1.256462
C 1.132857 0.803835 -1.164008
C 1.419968 -0.046352 0.072543
C 0.971187 0.726869 1.311448
C -0.519205 1.046478 1.22897
C -1.315055 -0.253783 1.128957
C -0.901655 -1.047679 -0.116867
C -1.150701 -0.182288 -1.350999
C 0.596249 -1.33658 -0.026203
N -1.615969 -2.31555 -0.273796
N 2.861588 -0.281172 0.159076
H -0.238443 2.836139 0.0491
H -1.848012 2.147391 -0.073878
H -0.545031 1.72087 -2.148349
H 1.720217 1.721158 -1.108204
H 1.46102 0.26744 -2.058879
H 1.56179 1.640241 1.390912
H 1.180043 0.133254 2.206403
H -0.822225 1.595403 2.123531
H -2.386461 -0.04017 1.081834
H -1.152344 -0.868524 2.018896
H -0.869713 -0.747121 -2.241067
H -2.219748 0.033469 -1.435483
H 0.798104 -1.961297 0.850385
H 0.902533 -1.910845 -0.903108
H -2.613051 -2.131219 -0.318173
H -1.476017 -2.878465 0.559028
H 3.053481 -0.873363 0.960651
H 3.159729 -0.81103 -0.653522
*