# Input file for Orca single point energy calculation.
! RIJK RI-PWPB95 D3BJ def2-TZVP def2/JK def2-TZVP/C TIGHTSCF
%MaxCore 900
%pal nprocs 5 end

* xyz 0 1
C 2.300812 0.509104 -0.244662
C 1.249268 -0.536385 -0.510668
O 0.007043 -0.057823 -0.020794
C -1.042056 -1.005148 -0.138971
C -2.32432 -0.353311 0.308919
N -2.682795 0.734915 -0.593939
N 2.495664 0.679804 1.190882
H 3.236315 0.163855 -0.688525
H 2.012797 1.428938 -0.774381
H 1.179354 -0.738406 -1.5871
H 1.519404 -1.470233 -0.002955
H -1.137899 -1.33244 -1.181319
H -0.828817 -1.886308 0.47952
H -3.111949 -1.108481 0.280893
H -2.206837 -0.049194 1.35933
H -3.508924 1.209398 -0.253295
H -1.933996 1.41581 -0.588794
H 1.618049 0.971904 1.601728
H 3.158887 1.424002 1.36413
*