# Input file for Orca single point energy calculation.
! RIJK RI-PWPB95 D3BJ def2-TZVP def2/JK def2-TZVP/C TIGHTSCF
%MaxCore 900
%pal nprocs 5 end

* xyz -1 2
C -3.805866 -0.392734 -2.165186
C -2.620049 -0.5589 -2.874388
C -1.39056 -0.447403 -2.232738
C -1.361745 -0.161399 -0.882834
C -2.553638 0.003353 -0.165431
C -3.781438 -0.111936 -0.805871
C -2.225552 0.29174 1.226074
C -3.044039 0.542713 2.320618
C -2.458053 0.787259 3.555073
C -1.073323 0.783699 3.693673
C -0.25331 0.536881 2.597091
C -0.832037 0.286349 1.369376
C -0.149832 0.003465 0.032411
C 0.707341 1.210482 -0.335492
C 0.193304 2.27534 -1.068175
C 0.94341 3.411456 -1.317073
C 2.245871 3.529818 -0.829936
C 2.766148 2.464161 -0.091417
C 2.006705 1.334993 0.15147
N 3.02974 4.639738 -1.135788
C 0.639227 -1.301299 0.032674
C 0.379192 -2.314506 0.949435
C 1.035074 -3.531795 0.888539
C 1.979317 -3.786971 -0.106811
C 2.242241 -2.773801 -1.032074
C 1.579828 -1.562673 -0.961472
N 2.6935 -4.982454 -0.130784
H -4.754481 -0.485763 -2.677595
H -2.654275 -0.779737 -3.933055
H -0.471819 -0.580623 -2.787741
H -4.70696 0.012998 -0.258598
H -4.121642 0.549758 2.21809
H -3.08265 0.984712 4.416447
H -0.630551 0.977923 4.661633
H 0.822522 0.538386 2.708808
H -0.815476 2.221876 -1.452388
H 0.514339 4.217409 -1.900402
H 3.777966 2.521429 0.29202
H 2.443008 0.525024 0.719492
H 2.505134 5.477623 -1.327224
H 3.766021 4.822879 -0.473787
H -0.35216 -2.155545 1.729211
H 0.814402 -4.294191 1.626128
H 2.977248 -2.937214 -1.811303
H 1.81409 -0.796965 -1.688073
H 2.215745 -5.759442 0.295801
H 3.048087 -5.236109 -1.038431
*