# Input file for Orca single point energy calculation.
! RIJK RI-PWPB95 D3BJ def2-TZVP def2/JK def2-TZVP/C TIGHTSCF
%MaxCore 900
%pal nprocs 5 end

* xyz +1 2
C 2.187222 -0.572946 -1.362322
C 3.335463 -0.983325 -0.70356
C 3.603953 -0.546482 0.593558
C 2.683601 0.313883 1.200456
C 1.541981 0.711865 0.532028
C 1.269674 0.283282 -0.7656
C 0.025712 0.735595 -1.483551
C -1.244672 0.502326 -0.710779
C -2.128221 1.536411 -0.426337
C -3.297206 1.320066 0.286169
C -3.621797 0.044056 0.746383
C -2.735976 -1.000878 0.464826
C -1.573157 -0.768876 -0.243911
N -4.824796 -0.198256 1.407415
N 4.785935 -0.900082 1.24224
H 2.002832 -0.932865 -2.367671
H 4.030453 -1.65036 -1.199689
H 2.869785 0.670605 2.206657
H 0.835036 1.360932 1.033567
H 0.102768 1.799533 -1.719108
H -0.028359 0.223476 -2.446827
H -1.89993 2.539487 -0.766788
H -3.965047 2.149116 0.48789
H -2.966157 -2.002749 0.807756
H -0.893767 -1.591636 -0.428855
H -4.809854 -1.00041 2.015642
H -5.205918 0.603298 1.88267
H 5.190681 -1.765522 0.924699
H 4.729763 -0.879542 2.247237
*