# Input file for Orca single point energy calculation.
! RIJK RI-PWPB95 D3BJ def2-TZVP def2/JK def2-TZVP/C TIGHTSCF
%MaxCore 900
%pal nprocs 5 end

* xyz 0 1
C -1.375442 -1.464025 0.414827
C -0.144834 -1.648935 -0.470576
C -0.202918 -0.670182 -1.640559
C -0.233847 0.769437 -1.130088
C 1.019914 1.010446 -0.290149
C 1.102909 0.042565 0.896667
C 1.113272 -1.385498 0.352906
C -0.139162 0.224221 1.767593
C -1.402757 -0.034744 0.951661
C -1.459053 0.941104 -0.222104
N 2.292682 0.239382 1.725617
N -0.216541 1.677267 -2.277885
H -2.283796 -1.667837 -0.156813
H -1.354424 -2.176782 1.241834
H -0.117779 -2.670845 -0.855005
H -1.093427 -0.861261 -2.246338
H 0.66008 -0.794922 -2.296104
H 1.901986 0.90118 -0.924404
H 1.020077 2.04026 0.082628
H 2.004373 -1.532473 -0.263722
H 1.18488 -2.081585 1.189484
H -0.154153 1.240583 2.172452
H -0.077089 -0.45576 2.617979
H -2.280162 0.104869 1.58729
H -2.368018 0.778799 -0.807755
H -1.494657 1.971896 0.141787
H 3.119332 0.14386 1.144686
H 2.304426 1.195065 2.067258
H -0.269425 2.634657 -1.945162
H -1.056447 1.529257 -2.828008
*