# Input file for Orca calculation for diamine
!B97-3c LARGEPRINT Opt Freq
%MaxCore 900
%pal nprocs 5 end

* xyz 0 1
C      2.351810    0.479404   -0.248316
C      1.257411   -0.566144   -0.489645
O      0.006474   -0.047842   -0.020246
C     -1.044195   -1.009749   -0.177234
C     -2.364493   -0.385649    0.287990
N     -2.745458    0.746178   -0.563553
N      2.546781    0.722274    1.184964
H      3.296113    0.143340   -0.687144
H      2.064230    1.423868   -0.723308
H      1.180515   -0.771269   -1.563350
H      1.495736   -1.498890    0.035231
H     -1.114639   -1.317837   -1.227200
H     -0.820614   -1.888799    0.437676
H     -3.162010   -1.134497    0.267712
H     -2.253719   -0.023316    1.315986
H     -3.471482    1.286397   -0.096353
H     -1.931569    1.362002   -0.633297
H      1.625276    0.901828    1.591299
H      3.083833    1.578700    1.308788
*