19
Coordinates from ORCA-job C:/Users/emanuele/Desktop/PlacementEssay/PlacementEssay/backup/ChemspeedPlatformAllVersions/V12/Workflows/DataAnalysisWorkflow/FeatureGeneration/calculationFiles/68482/geometryOptimization/68482 E -344.191511201267
  C       2.351810      0.479404     -0.248316
  C       1.257411     -0.566144     -0.489645
  O       0.006474     -0.047842     -0.020246
  C      -1.044195     -1.009749     -0.177234
  C      -2.364493     -0.385649      0.287990
  N      -2.745458      0.746178     -0.563553
  N       2.546781      0.722274      1.184964
  H       3.296113      0.143340     -0.687144
  H       2.064230      1.423868     -0.723308
  H       1.180515     -0.771269     -1.563350
  H       1.495736     -1.498890      0.035231
  H      -1.114639     -1.317837     -1.227200
  H      -0.820614     -1.888799      0.437676
  H      -3.162010     -1.134497      0.267712
  H      -2.253719     -0.023316      1.315986
  H      -3.471482      1.286397     -0.096353
  H      -1.931569      1.362002     -0.633297
  H       1.625276      0.901828      1.591299
  H       3.083833      1.578700      1.308788
19
Coordinates from ORCA-job C:/Users/emanuele/Desktop/PlacementEssay/PlacementEssay/backup/ChemspeedPlatformAllVersions/V12/Workflows/DataAnalysisWorkflow/FeatureGeneration/calculationFiles/68482/geometryOptimization/68482 E -344.195035203410
  C       2.310288      0.495691     -0.253123
  C       1.250160     -0.550013     -0.501875
  O       0.006466     -0.049996     -0.019194
  C      -1.040088     -1.007029     -0.155523
  C      -2.328367     -0.369302      0.305873
  N      -2.696901      0.740643     -0.582469
  N       2.505249      0.694839      1.188847
  H       3.248016      0.158910     -0.696098
  H       2.012728      1.426804     -0.752537
  H       1.177144     -0.755070     -1.575857
  H       1.507062     -1.478432      0.019682
  H      -1.127539     -1.317737     -1.202290
  H      -0.821839     -1.887743      0.458946
  H      -3.119655     -1.119278      0.286068
  H      -2.204621     -0.032016      1.343095
  H      -3.431448      1.285203     -0.149291
  H      -1.895105      1.355725     -0.650999
  H       1.596443      0.875982      1.597665
  H       3.052008      1.532818      1.339081
19
Coordinates from ORCA-job C:/Users/emanuele/Desktop/PlacementEssay/PlacementEssay/backup/ChemspeedPlatformAllVersions/V12/Workflows/DataAnalysisWorkflow/FeatureGeneration/calculationFiles/68482/geometryOptimization/68482 E -344.195778603159
  C       2.298650      0.507170     -0.251553
  C       1.250046     -0.537621     -0.508456
  O       0.006972     -0.054402     -0.019229
  C      -1.042364     -1.004199     -0.141134
  C      -2.320571     -0.358213      0.313011
  N      -2.683813      0.734798     -0.593129
  N       2.497065      0.680746      1.190019
  H       3.233180      0.163944     -0.696807
  H       2.003934      1.429416     -0.771082
  H       1.179189     -0.744262     -1.583200
  H       1.517340     -1.467045      0.007448
  H      -1.137559     -1.321376     -1.185970
  H      -0.827322     -1.887396      0.472513
  H      -3.107619     -1.112747      0.288102
  H      -2.197796     -0.042898      1.358372
  H      -3.445987      1.266483     -0.193170
  H      -1.895458      1.367194     -0.644814
  H       1.596378      0.886560      1.602959
  H       3.075733      1.493849      1.356120
19
Coordinates from ORCA-job C:/Users/emanuele/Desktop/PlacementEssay/PlacementEssay/backup/ChemspeedPlatformAllVersions/V12/Workflows/DataAnalysisWorkflow/FeatureGeneration/calculationFiles/68482/geometryOptimization/68482 E -344.195941595792
  C       2.299473      0.510484     -0.248636
  C       1.250311     -0.535049     -0.509981
  O       0.007285     -0.057590     -0.019582
  C      -1.043240     -1.004153     -0.137720
  C      -2.322874     -0.354379      0.312505
  N      -2.682786      0.734846     -0.594027
  N       2.497466      0.680006      1.190009
  H       3.233543      0.162862     -0.693506
  H       2.009895      1.429283     -0.778161
  H       1.179824     -0.742159     -1.585130
  H       1.520384     -1.466580      0.002022
  H      -1.139343     -1.326133     -1.181684
  H      -0.829291     -1.888088      0.476071
  H      -3.108847     -1.111069      0.282663
  H      -2.204692     -0.050498      1.362322
  H      -3.467343      1.249590     -0.215028
  H      -1.906014      1.383469     -0.625547
  H       1.602797      0.912762      1.602915
  H       3.103451      1.472395      1.360493
19
Coordinates from ORCA-job C:/Users/emanuele/Desktop/PlacementEssay/PlacementEssay/backup/ChemspeedPlatformAllVersions/V12/Workflows/DataAnalysisWorkflow/FeatureGeneration/calculationFiles/68482/geometryOptimization/68482 E -344.196017003149
  C       2.300979      0.510844     -0.246047
  C       1.249989     -0.535570     -0.510424
  O       0.007416     -0.059738     -0.020023
  C      -1.042951     -1.005101     -0.137574
  C      -2.324998     -0.352924      0.310356
  N      -2.681197      0.736755     -0.592053
  N       2.495887      0.682307      1.189614
  H       3.235521      0.161073     -0.689575
  H       2.015442      1.428076     -0.781288
  H       1.179719     -0.741689     -1.586026
  H       1.521291     -1.468935     -0.001675
  H      -1.138989     -1.331077     -1.180679
  H      -0.829815     -1.888675      0.477460
  H      -3.111258     -1.109970      0.277118
  H      -2.210520     -0.055684      1.362913
  H      -3.486732      1.232841     -0.232336
  H      -1.916735      1.400906     -0.602635
  H       1.608001      0.943625      1.600689
  H       3.128951      1.452936      1.362185
19
Coordinates from ORCA-job C:/Users/emanuele/Desktop/PlacementEssay/PlacementEssay/backup/ChemspeedPlatformAllVersions/V12/Workflows/DataAnalysisWorkflow/FeatureGeneration/calculationFiles/68482/geometryOptimization/68482 E -344.196042486371
  C       2.301491      0.509815     -0.244979
  C       1.249576     -0.536587     -0.510409
  O       0.007351     -0.059825     -0.020344
  C      -1.042374     -1.005641     -0.138543
  C      -2.325375     -0.353113      0.308925
  N      -2.680387      0.737668     -0.590848
  N       2.494249      0.683481      1.189602
  H       3.236560      0.160525     -0.687705
  H       2.016789      1.427375     -0.780482
  H       1.179523     -0.740998     -1.586405
  H       1.520887     -1.470634     -0.003019
  H      -1.138285     -1.333242     -1.181106
  H      -0.829569     -1.888290      0.478031
  H      -3.112252     -1.109491      0.275736
  H      -2.211421     -0.056026      1.361779
  H      -3.497849      1.221838     -0.242312
  H      -1.924098      1.410893     -0.590162
  H       1.611346      0.962333      1.599384
  H       3.143841      1.439916      1.362858
19
Coordinates from ORCA-job C:/Users/emanuele/Desktop/PlacementEssay/PlacementEssay/backup/ChemspeedPlatformAllVersions/V12/Workflows/DataAnalysisWorkflow/FeatureGeneration/calculationFiles/68482/geometryOptimization/68482 E -344.196052057678
  C       2.301354      0.508949     -0.244682
  C       1.249310     -0.536980     -0.510392
  O       0.007208     -0.058942     -0.020590
  C      -1.042011     -1.005607     -0.139232
  C      -2.324940     -0.353511      0.308440
  N      -2.680838      0.737123     -0.591310
  N       2.493898      0.682771      1.190016
  H       3.236748      0.161317     -0.687412
  H       2.015630      1.427547     -0.777951
  H       1.179433     -0.739819     -1.586688
  H       1.520128     -1.471076     -0.003211
  H      -1.137875     -1.333457     -1.181535
  H      -0.829197     -1.887338      0.478633
  H      -3.112293     -1.109128      0.277197
  H      -2.209720     -0.053616      1.360407
  H      -3.504883      1.214131     -0.248970
  H      -1.929766      1.415688     -0.585840
  H       1.614488      0.971576      1.599662
  H       3.153326      1.430370      1.363457
19
Coordinates from ORCA-job C:/Users/emanuele/Desktop/PlacementEssay/PlacementEssay/backup/ChemspeedPlatformAllVersions/V12/Workflows/DataAnalysisWorkflow/FeatureGeneration/calculationFiles/68482/geometryOptimization/68482 E -344.196054347946
  C       2.301034      0.508871     -0.244693
  C       1.249260     -0.536726     -0.510501
  O       0.007103     -0.058194     -0.020716
  C      -1.041989     -1.005334     -0.139219
  C      -2.324512     -0.353518      0.308651
  N      -2.681905      0.735916     -0.592694
  N       2.494735      0.681168      1.190505
  H       3.236514      0.162681     -0.687984
  H       2.013953      1.428262     -0.775779
  H       1.179403     -0.738909     -1.586910
  H       1.519642     -1.470663     -0.003018
  H      -1.137842     -1.332857     -1.181520
  H      -0.828969     -1.886640      0.479153
  H      -3.112055     -1.108793      0.279335
  H      -2.207903     -0.050999      1.359668
  H      -3.507715      1.210835     -0.251892
  H      -1.932574      1.416225     -0.587042
  H       1.616644      0.972646      1.600789
  H       3.157176      1.426031      1.363869
19
Coordinates from ORCA-job C:/Users/emanuele/Desktop/PlacementEssay/PlacementEssay/backup/ChemspeedPlatformAllVersions/V12/Workflows/DataAnalysisWorkflow/FeatureGeneration/calculationFiles/68482/geometryOptimization/68482 E -344.196054937164
  C       2.300812      0.509104     -0.244662
  C       1.249268     -0.536385     -0.510668
  O       0.007043     -0.057823     -0.020794
  C      -1.042056     -1.005148     -0.138971
  C      -2.324320     -0.353311      0.308919
  N      -2.682795      0.734915     -0.593939
  N       2.495664      0.679804      1.190882
  H       3.236315      0.163855     -0.688525
  H       2.012797      1.428938     -0.774381
  H       1.179354     -0.738406     -1.587100
  H       1.519404     -1.470233     -0.002955
  H      -1.137899     -1.332440     -1.181319
  H      -0.828817     -1.886308      0.479520
  H      -3.111949     -1.108481      0.280893
  H      -2.206837     -0.049194      1.359330
  H      -3.508924      1.209398     -0.253295
  H      -1.933996      1.415810     -0.588794
  H       1.618049      0.971904      1.601728
  H       3.158887      1.424002      1.364130
