# Input file for Orca calculation for diamine
!B97-3c LARGEPRINT Opt Freq
%MaxCore 900
%pal nprocs 5 end

* xyz 0 1
C     -3.474640   -0.036725   -0.882425
C     -2.266974    0.451381   -1.388911
C     -1.203331    0.703120   -0.525421
C     -1.363050    0.519782    0.848337
C     -2.574275    0.030989    1.346766
C     -3.620843   -0.302642    0.482070
N     -4.866935   -0.678047    0.996756
O     -0.053809    1.216699   -1.080118
C      1.142303    0.676800   -0.666986
C      1.370940   -0.698229   -0.609066
C      2.624960   -1.177096   -0.218506
C      3.647235   -0.294105    0.141484
C      3.428537    1.079243   -0.000019
C      2.177745    1.566242   -0.389361
N      4.931330   -0.778021    0.416255
H     -4.303210   -0.204490   -1.565051
H     -2.161641    0.643185   -2.452871
H     -0.562773    0.772111    1.537916
H     -2.694673   -0.081578    2.420815
H     -4.816224   -1.138718    1.899835
H     -5.447740   -1.185462    0.336768
H      0.590621   -1.401899   -0.883992
H      2.797774   -2.249785   -0.203655
H      4.233341    1.784404    0.188897
H      2.016611    2.636223   -0.484607
H      4.942554   -1.717777    0.799755
H      5.506168   -0.135605    0.952214
*