# Input file for Orca calculation for diamine
!B97-3c LARGEPRINT Opt Freq
%MaxCore 900
%pal nprocs 5 end

* xyz 0 1
C      2.564333   -1.026695    0.242657
C      1.426775   -1.821624    0.187775
C      0.149058   -1.254236    0.063339
C     -0.959040   -2.114091    0.010979
C     -2.250190   -1.616638   -0.109168
C     -2.444640   -0.248578   -0.220387
C     -1.354791    0.635270   -0.237916
C     -0.018914    0.159149   -0.008037
C      1.165820    0.954803    0.157618
C      2.432230    0.353000    0.215115
N      1.167883    2.370128    0.094355
N     -1.688430    2.009973   -0.315550
H      3.548286   -1.480376    0.318716
H      1.548689   -2.902445    0.230954
H     -0.824373   -3.192252    0.076827
H     -3.099841   -2.293031   -0.128157
H     -3.454391    0.140259   -0.331116
H      3.321712    0.976152    0.274739
H      1.282136    2.682009   -0.867321
H      0.333790    2.754620    0.524200
H     -1.883772    2.380452    0.611668
H     -0.962329    2.534151   -0.791288
*