20
Coordinates from ORCA-job C:/Users/emanuele/Desktop/PlacementEssay/PlacementEssay/backup/ChemspeedPlatformAllVersions/V12/Workflows/DataAnalysisWorkflow/FeatureGeneration/calculationFiles/666291/geometryOptimization/666291 E -532.249166908563
  C      -2.033374     -0.984105     -0.806939
  N      -1.056829     -0.101276     -0.214224
  C       0.296453     -0.325804     -0.117077
  C       1.131105     -1.378491     -0.514430
  C       2.497880     -1.250490     -0.238867
  C       3.004890     -0.120958      0.404573
  C       2.155008      0.920476      0.793939
  C       0.782450      0.809753      0.526124
  N      -0.231204      1.689800      0.809421
  C      -1.333726      1.122511      0.355033
  C      -2.626159      1.755364      0.471541
  O      -3.689498      1.285003      0.071698
  H      -1.547906     -1.886597     -1.183211
  H      -2.515735     -0.461877     -1.637095
  H      -2.762740     -1.260123     -0.041177
  H       0.749324     -2.261483     -1.015173
  H       3.177744     -2.048022     -0.532552
  H       4.070691     -0.046254      0.606895
  H       2.541661      1.801318      1.294362
  H      -2.610035      2.741256      0.967160
20
Coordinates from ORCA-job C:/Users/emanuele/Desktop/PlacementEssay/PlacementEssay/backup/ChemspeedPlatformAllVersions/V12/Workflows/DataAnalysisWorkflow/FeatureGeneration/calculationFiles/666291/geometryOptimization/666291 E -532.252461991483
  C      -2.040458     -1.002688     -0.816749
  N      -1.060855     -0.108918     -0.219448
  C       0.292054     -0.319699     -0.115751
  C       1.117919     -1.368450     -0.512534
  C       2.471442     -1.238951     -0.237433
  C       2.990469     -0.108415      0.409257
  C       2.166222      0.931950      0.801772
  C       0.798353      0.825238      0.535757
  N      -0.211101      1.701393      0.817688
  C      -1.312623      1.121009      0.356757
  C      -2.607938      1.754545      0.473652
  O      -3.665517      1.285565      0.075771
  H      -1.540844     -1.893215     -1.184172
  H      -2.534437     -0.505334     -1.645861
  H      -2.776649     -1.290484     -0.072518
  H       0.736862     -2.248014     -1.012062
  H       3.142404     -2.034724     -0.531597
  H       4.051814     -0.045189      0.605977
  H       2.559612      1.806396      1.300763
  H      -2.576730      2.737988      0.970732
20
Coordinates from ORCA-job C:/Users/emanuele/Desktop/PlacementEssay/PlacementEssay/backup/ChemspeedPlatformAllVersions/V12/Workflows/DataAnalysisWorkflow/FeatureGeneration/calculationFiles/666291/geometryOptimization/666291 E -532.252793062895
  C      -2.038084     -1.005317     -0.817461
  N      -1.062617     -0.107491     -0.219922
  C       0.289889     -0.316693     -0.115406
  C       1.112955     -1.365460     -0.512494
  C       2.461317     -1.237404     -0.238258
  C       2.985183     -0.105996      0.410123
  C       2.171409      0.934627      0.804012
  C       0.803864      0.831862      0.539347
  N      -0.207495      1.705987      0.820148
  C      -1.308264      1.123653      0.358307
  C      -2.608836      1.753422      0.473236
  O      -3.661072      1.280172      0.074028
  H      -1.524825     -1.889516     -1.178922
  H      -2.540020     -0.519373     -1.647045
  H      -2.779945     -1.298381     -0.082682
  H       0.731246     -2.244412     -1.012309
  H       3.130716     -2.033681     -0.532828
  H       4.047163     -0.050575      0.603714
  H       2.567110      1.807416      1.302992
  H      -2.569693      2.737162      0.971423
20
Coordinates from ORCA-job C:/Users/emanuele/Desktop/PlacementEssay/PlacementEssay/backup/ChemspeedPlatformAllVersions/V12/Workflows/DataAnalysisWorkflow/FeatureGeneration/calculationFiles/666291/geometryOptimization/666291 E -532.252844936935
  C      -2.035310     -1.004774     -0.816686
  N      -1.063375     -0.105010     -0.219544
  C       0.288691     -0.315454     -0.115507
  C       1.111668     -1.364977     -0.512812
  C       2.459346     -1.238302     -0.238947
  C       2.984229     -0.106495      0.410020
  C       2.172619      0.934637      0.804271
  C       0.804406      0.834032      0.540172
  N      -0.208067      1.707568      0.820489
  C      -1.308209      1.126444      0.359045
  C      -2.611918      1.753762      0.472156
  O      -3.661487      1.276692      0.073050
  H      -1.515786     -1.886552     -1.175230
  H      -2.541310     -0.523237     -1.646909
  H      -2.780580     -1.299425     -0.085383
  H       0.729537     -2.243845     -1.012934
  H       3.129384     -2.034438     -0.533211
  H       4.046973     -0.055176      0.602071
  H       2.568152      1.807568      1.303453
  H      -2.568963      2.736983      0.972438
20
Coordinates from ORCA-job C:/Users/emanuele/Desktop/PlacementEssay/PlacementEssay/backup/ChemspeedPlatformAllVersions/V12/Workflows/DataAnalysisWorkflow/FeatureGeneration/calculationFiles/666291/geometryOptimization/666291 E -532.252852201524
  C      -2.033586     -1.004577     -0.815412
  N      -1.063883     -0.103712     -0.218426
  C       0.287961     -0.315153     -0.115288
  C       1.111409     -1.364704     -0.513372
  C       2.459480     -1.238666     -0.239972
  C       2.984299     -0.106970      0.409566
  C       2.172475      0.933926      0.804572
  C       0.803778      0.834089      0.540977
  N      -0.208944      1.707232      0.821784
  C      -1.308811      1.127481      0.361193
  C      -2.614382      1.752952      0.474225
  O      -3.661547      1.276903      0.068701
  H      -1.511876     -1.885344     -1.173324
  H      -2.542038     -0.524456     -1.645475
  H      -2.780440     -1.299900     -0.085415
  H       0.729192     -2.243385     -1.014017
  H       3.130587     -2.033982     -0.534381
  H       4.047524     -0.057850      0.600363
  H       2.567029      1.807226      1.304211
  H      -2.568228      2.738893      0.969491
20
Coordinates from ORCA-job C:/Users/emanuele/Desktop/PlacementEssay/PlacementEssay/backup/ChemspeedPlatformAllVersions/V12/Workflows/DataAnalysisWorkflow/FeatureGeneration/calculationFiles/666291/geometryOptimization/666291 E -532.252850532014
  C      -2.032348     -1.003844     -0.815904
  N      -1.063948     -0.102157     -0.219273
  C       0.287643     -0.314796     -0.115795
  C       1.111302     -1.364929     -0.512981
  C       2.459775     -1.239502     -0.239226
  C       2.984480     -0.107556      0.409804
  C       2.172219      0.933785      0.803733
  C       0.803353      0.834422      0.539842
  N      -0.209053      1.708014      0.819958
  C      -1.308761      1.129662      0.359521
  C      -2.615034      1.755195      0.470331
  O      -3.662718      1.273732      0.073122
  H      -1.510406     -1.885037     -1.172402
  H      -2.541259     -0.524754     -1.646624
  H      -2.780760     -1.298032     -0.086642
  H       0.729022     -2.243814     -1.013352
  H       3.131640     -2.034658     -0.532467
  H       4.047897     -0.060084      0.600318
  H       2.565818      1.807815      1.303082
  H      -2.568862      2.736537      0.974958
20
Coordinates from ORCA-job C:/Users/emanuele/Desktop/PlacementEssay/PlacementEssay/backup/ChemspeedPlatformAllVersions/V12/Workflows/DataAnalysisWorkflow/FeatureGeneration/calculationFiles/666291/geometryOptimization/666291 E -532.252857548444
  C      -2.033458     -1.004447     -0.815821
  N      -1.063839     -0.103368     -0.219011
  C       0.287994     -0.315166     -0.115567
  C       1.111515     -1.364798     -0.513159
  C       2.459810     -1.238800     -0.239472
  C       2.984503     -0.107073      0.409772
  C       2.172193      0.933888      0.804164
  C       0.803593      0.833843      0.540262
  N      -0.208684      1.707356      0.820838
  C      -1.308645      1.128182      0.360189
  C      -2.614078      1.754139      0.472264
  O      -3.661940      1.275866      0.071148
  H      -1.512865     -1.885979     -1.173376
  H      -2.541446     -0.524239     -1.646164
  H      -2.780631     -1.298721     -0.085673
  H       0.729382     -2.243595     -1.013645
  H       3.131283     -2.033986     -0.533297
  H       4.047715     -0.058361      0.600586
  H       2.566096      1.807587      1.303663
  H      -2.568499      2.737675      0.972301
20
Coordinates from ORCA-job C:/Users/emanuele/Desktop/PlacementEssay/PlacementEssay/backup/ChemspeedPlatformAllVersions/V12/Workflows/DataAnalysisWorkflow/FeatureGeneration/calculationFiles/666291/geometryOptimization/666291 E -532.252857668117
  C      -2.033457     -1.004510     -0.815764
  N      -1.063874     -0.103366     -0.219017
  C       0.287979     -0.315194     -0.115575
  C       1.111520     -1.364765     -0.513215
  C       2.459820     -1.238726     -0.239520
  C       2.984534     -0.107027      0.409779
  C       2.172161      0.933862      0.804209
  C       0.803585      0.833712      0.540273
  N      -0.208614      1.707266      0.820931
  C      -1.308618      1.128195      0.360297
  C      -2.614068      1.754152      0.472302
  O      -3.661845      1.276014      0.070850
  H      -1.513071     -1.886197     -1.173221
  H      -2.541394     -0.524345     -1.646168
  H      -2.780700     -1.298573     -0.085598
  H       0.729434     -2.243552     -1.013754
  H       3.131425     -2.033802     -0.533340
  H       4.047773     -0.058497      0.600483
  H       2.565830      1.807639      1.303756
  H      -2.568422      2.737716      0.972291
