# Input file for Orca calculation for diamine
!B97-3c LARGEPRINT Opt Freq
%MaxCore 900
%pal nprocs 5 end

* xyz 0 1
C      3.625864    0.743009   -2.380423
C      2.333151    0.437530   -2.781174
C      1.373015    0.090933   -1.827725
C      1.672819    0.042718   -0.444489
C      3.001005    0.349594   -0.058700
C      3.957633    0.696755   -1.027896
C      3.363397    0.292545    1.291157
C      2.431204   -0.050278    2.268161
C      1.099653   -0.301891    1.931147
C      0.715436   -0.300642    0.564267
C     -0.689401   -0.639875    0.193399
C     -1.676966    0.390710    0.066915
C     -1.413342    1.764139    0.292796
C     -2.404609    2.739220    0.159806
C     -3.691339    2.370758   -0.205639
C     -3.984292    1.028842   -0.439932
C     -2.996535    0.037969   -0.309036
C     -3.312462   -1.300739   -0.563312
C     -2.350175   -2.299768   -0.432939
C     -1.055680   -1.996230   -0.007045
N     -0.099108   -3.032885    0.004769
N      0.234768   -0.761956    2.946342
H      4.377323    1.011089   -3.117858
H      2.064951    0.462950   -3.833918
H      0.372154   -0.150315   -2.181705
H      4.978412    0.932034   -0.733981
H      4.386462    0.500846    1.596930
H      2.756158   -0.119310    3.303055
H     -0.415438    2.094110    0.576182
H     -2.164431    3.783819    0.339366
H     -4.466141    3.124920   -0.313267
H     -4.997705    0.760094   -0.731197
H     -4.315003   -1.581674   -0.878771
H     -2.621293   -3.326117   -0.666269
H     -0.489198   -3.943298    0.221675
H      0.697337   -2.815038    0.602046
H      0.451321   -0.388989    3.864805
H     -0.748943   -0.645579    2.712453
*