38
Coordinates from ORCA-job C:/Users/emanuele/Desktop/PlacementEssay/PlacementEssay/backup/ChemspeedPlatformAllVersions/V12/Workflows/DataAnalysisWorkflow/FeatureGeneration/calculationFiles/19371/geometryOptimization/19371 E -880.877402415498
  C       3.625864      0.743009     -2.380423
  C       2.333151      0.437530     -2.781174
  C       1.373015      0.090933     -1.827725
  C       1.672819      0.042718     -0.444489
  C       3.001005      0.349594     -0.058700
  C       3.957633      0.696755     -1.027896
  C       3.363397      0.292545      1.291157
  C       2.431204     -0.050278      2.268161
  C       1.099653     -0.301891      1.931147
  C       0.715436     -0.300642      0.564267
  C      -0.689401     -0.639875      0.193399
  C      -1.676966      0.390710      0.066915
  C      -1.413342      1.764139      0.292796
  C      -2.404609      2.739220      0.159806
  C      -3.691339      2.370758     -0.205639
  C      -3.984292      1.028842     -0.439932
  C      -2.996535      0.037969     -0.309036
  C      -3.312462     -1.300739     -0.563312
  C      -2.350175     -2.299768     -0.432939
  C      -1.055680     -1.996230     -0.007045
  N      -0.099108     -3.032885      0.004769
  N       0.234768     -0.761956      2.946342
  H       4.377323      1.011089     -3.117858
  H       2.064951      0.462950     -3.833918
  H       0.372154     -0.150315     -2.181705
  H       4.978412      0.932034     -0.733981
  H       4.386462      0.500846      1.596930
  H       2.756158     -0.119310      3.303055
  H      -0.415438      2.094110      0.576182
  H      -2.164431      3.783819      0.339366
  H      -4.466141      3.124920     -0.313267
  H      -4.997705      0.760094     -0.731197
  H      -4.315003     -1.581674     -0.878771
  H      -2.621293     -3.326117     -0.666269
  H      -0.489198     -3.943298      0.221675
  H       0.697337     -2.815038      0.602046
  H       0.451321     -0.388989      3.864805
  H      -0.748943     -0.645579      2.712453
38
Coordinates from ORCA-job C:/Users/emanuele/Desktop/PlacementEssay/PlacementEssay/backup/ChemspeedPlatformAllVersions/V12/Workflows/DataAnalysisWorkflow/FeatureGeneration/calculationFiles/19371/geometryOptimization/19371 E -880.886419791763
  C       3.604212      0.759303     -2.360180
  C       2.299410      0.446769     -2.752441
  C       1.352094      0.092340     -1.813078
  C       1.666565      0.035406     -0.440943
  C       3.001296      0.350540     -0.050251
  C       3.948759      0.710225     -1.025783
  C       3.348099      0.290949      1.310058
  C       2.416873     -0.060939      2.258190
  C       1.088200     -0.343559      1.894379
  C       0.714031     -0.318978      0.549607
  C      -0.680254     -0.647628      0.174439
  C      -1.658074      0.374866      0.052965
  C      -1.368358      1.737133      0.271441
  C      -2.342602      2.707670      0.147899
  C      -3.650347      2.358706     -0.201265
  C      -3.969494      1.035760     -0.425219
  C      -2.994492      0.028955     -0.305992
  C      -3.312736     -1.319590     -0.538860
  C      -2.356063     -2.298914     -0.415526
  C      -1.041099     -1.980460     -0.032091
  N      -0.083501     -2.993655      0.013837
  N       0.191640     -0.769884      2.877095
  H       4.344227      1.037273     -3.099670
  H       2.023230      0.479573     -3.798057
  H       0.352323     -0.147796     -2.149464
  H       4.962898      0.951863     -0.732779
  H       4.359863      0.512734      1.624656
  H       2.717476     -0.116049      3.297674
  H      -0.364737      2.041669      0.537063
  H      -2.084788      3.744236      0.320723
  H      -4.411482      3.122209     -0.298707
  H      -4.985020      0.776038     -0.697248
  H      -4.317189     -1.600713     -0.828398
  H      -2.625012     -3.328447     -0.618749
  H      -0.461564     -3.891755      0.268445
  H       0.710946     -2.752820      0.588133
  H       0.378409     -0.379907      3.786623
  H      -0.773738     -0.643122      2.611469
38
Coordinates from ORCA-job C:/Users/emanuele/Desktop/PlacementEssay/PlacementEssay/backup/ChemspeedPlatformAllVersions/V12/Workflows/DataAnalysisWorkflow/FeatureGeneration/calculationFiles/19371/geometryOptimization/19371 E -880.887862159920
  C       3.600400      0.760776     -2.351621
  C       2.290395      0.440677     -2.741546
  C       1.348786      0.084386     -1.810250
  C       1.668615      0.029023     -0.439184
  C       3.003823      0.354541     -0.044625
  C       3.946937      0.717204     -1.025431
  C       3.333945      0.303194      1.324939
  C       2.403315     -0.049405      2.259227
  C       1.077258     -0.358298      1.881660
  C       0.713564     -0.328712      0.543757
  C      -0.676905     -0.656021      0.161172
  C      -1.651114      0.365865      0.042646
  C      -1.345197      1.725232      0.259712
  C      -2.309437      2.694491      0.146358
  C      -3.629895      2.357510     -0.190184
  C      -3.963348      1.044996     -0.408711
  C      -2.997578      0.026133     -0.300617
  C      -3.315797     -1.329749     -0.518652
  C      -2.364107     -2.301290     -0.406107
  C      -1.033228     -1.979470     -0.056472
  N      -0.079646     -2.986779     -0.010428
  N       0.166927     -0.762921      2.853418
  H       4.335722      1.041394     -3.093618
  H       2.014599      0.472704     -3.787076
  H       0.347173     -0.159633     -2.133276
  H       4.957194      0.965154     -0.725728
  H       4.340741      0.541033      1.642335
  H       2.684511     -0.087944      3.304446
  H      -0.333701      2.009219      0.512176
  H      -2.042411      3.729135      0.315304
  H      -4.383037      3.128788     -0.278775
  H      -4.981852      0.785673     -0.668127
  H      -4.327152     -1.605986     -0.786580
  H      -2.630935     -3.333973     -0.593482
  H      -0.446384     -3.885250      0.258735
  H       0.736062     -2.743217      0.529951
  H       0.336422     -0.363334      3.762190
  H      -0.794663     -0.645146      2.572458
38
Coordinates from ORCA-job C:/Users/emanuele/Desktop/PlacementEssay/PlacementEssay/backup/ChemspeedPlatformAllVersions/V12/Workflows/DataAnalysisWorkflow/FeatureGeneration/calculationFiles/19371/geometryOptimization/19371 E -880.888095174465
  C       3.605437      0.752173     -2.351970
  C       2.295072      0.428252     -2.742716
  C       1.353081      0.074877     -1.812492
  C       1.672207      0.025890     -0.439014
  C       3.005789      0.356790     -0.043293
  C       3.949105      0.715742     -1.026007
  C       3.328210      0.314688      1.329698
  C       2.397247     -0.034991      2.262605
  C       1.072049     -0.354302      1.882830
  C       0.713243     -0.328460      0.543261
  C      -0.677332     -0.657717      0.157278
  C      -1.652774      0.364809      0.041790
  C      -1.343421      1.725011      0.261782
  C      -2.306225      2.694490      0.153501
  C      -3.629513      2.359843     -0.180224
  C      -3.964509      1.049203     -0.400453
  C      -3.000879      0.027204     -0.297575
  C      -3.317360     -1.330604     -0.514611
  C      -2.366766     -2.301763     -0.408307
  C      -1.030881     -1.980821     -0.068059
  N      -0.080688     -2.988869     -0.030307
  N       0.162391     -0.754743      2.855120
  H       4.340422      1.030025     -3.095415
  H       2.023211      0.456228     -3.789744
  H       0.350074     -0.172584     -2.129004
  H       4.957425      0.966048     -0.720142
  H       4.334275      0.560745      1.644992
  H       2.670435     -0.065819      3.310338
  H      -0.328435      1.999982      0.510735
  H      -2.039471      3.729455      0.323139
  H      -4.380662      3.133578     -0.264749
  H      -4.982905      0.786046     -0.658411
  H      -4.332643     -1.602335     -0.774348
  H      -2.630808     -3.335720     -0.593618
  H      -0.440073     -3.890121      0.238191
  H       0.749611     -2.748369      0.488467
  H       0.326183     -0.353907      3.764130
  H      -0.800122     -0.649950      2.572598
38
Coordinates from ORCA-job C:/Users/emanuele/Desktop/PlacementEssay/PlacementEssay/backup/ChemspeedPlatformAllVersions/V12/Workflows/DataAnalysisWorkflow/FeatureGeneration/calculationFiles/19371/geometryOptimization/19371 E -880.888191807293
  C       3.614095      0.734628     -2.353993
  C       2.303779      0.410124     -2.746075
  C       1.359181      0.064098     -1.815584
  C       1.675958      0.023583     -0.439527
  C       3.008124      0.355692     -0.043245
  C       3.953794      0.706426     -1.026814
  C       3.325189      0.322849      1.331481
  C       2.392444     -0.019969      2.264929
  C       1.067041     -0.342499      1.884589
  C       0.712564     -0.323263      0.542680
  C      -0.678418     -0.654907      0.155364
  C      -1.657221      0.366455      0.045339
  C      -1.349138      1.727714      0.271377
  C      -2.313724      2.696110      0.168661
  C      -3.637131      2.360370     -0.165326
  C      -3.969143      1.050000     -0.391427
  C      -3.004338      0.028550     -0.294002
  C      -3.316934     -1.329580     -0.516787
  C      -2.365087     -2.299932     -0.417136
  C      -1.027857     -1.978602     -0.077572
  N      -0.078805     -2.985230     -0.048834
  N       0.158924     -0.738387      2.857931
  H       4.350070      1.005916     -3.098998
  H       2.037364      0.432861     -3.794843
  H       0.354503     -0.185146     -2.126282
  H       4.960784      0.956046     -0.714661
  H       4.331899      0.572922      1.643186
  H       2.659000     -0.045279      3.314635
  H      -0.332111      1.996560      0.519686
  H      -2.051380      3.731826      0.341955
  H      -4.388371      3.134604     -0.245391
  H      -4.985932      0.780691     -0.651137
  H      -4.334540     -1.597465     -0.773412
  H      -2.623511     -3.334808     -0.605992
  H      -0.428630     -3.891820      0.212866
  H       0.763769     -2.746170      0.450391
  H       0.318581     -0.337504      3.767479
  H      -0.804791     -0.647465      2.574482
38
Coordinates from ORCA-job C:/Users/emanuele/Desktop/PlacementEssay/PlacementEssay/backup/ChemspeedPlatformAllVersions/V12/Workflows/DataAnalysisWorkflow/FeatureGeneration/calculationFiles/19371/geometryOptimization/19371 E -880.888208747919
  C       3.620822      0.720127     -2.354868
  C       2.310642      0.397114     -2.748023
  C       1.363475      0.057331     -1.817481
  C       1.677834      0.021953     -0.440536
  C       3.009669      0.352568     -0.043586
  C       3.958046      0.696828     -1.026724
  C       3.325129      0.324733      1.331383
  C       2.390167     -0.011830      2.265181
  C       1.064446     -0.332510      1.884389
  C       0.712117     -0.318834      0.541386
  C      -0.678733     -0.651246      0.153878
  C      -1.660051      0.368227      0.048807
  C      -1.355126      1.729474      0.279972
  C      -2.322364      2.696067      0.181853
  C      -3.644891      2.358205     -0.152658
  C      -3.973621      1.047689     -0.384066
  C      -3.006025      0.028582     -0.291252
  C      -3.315965     -1.328881     -0.520560
  C      -2.361885     -2.297805     -0.425980
  C      -1.025570     -1.975090     -0.084023
  N      -0.074987     -2.979394     -0.059557
  N       0.154994     -0.722173      2.857970
  H       4.358235      0.986292     -3.100322
  H       2.047336      0.416442     -3.797631
  H       0.358258     -0.191342     -2.127139
  H       4.964713      0.945114     -0.712388
  H       4.332431      0.573959      1.641967
  H       2.654101     -0.034169      3.315633
  H      -0.338067      1.998093      0.528712
  H      -2.063725      3.732059      0.358977
  H      -4.397592      3.131422     -0.228954
  H      -4.989437      0.775409     -0.644600
  H      -4.333391     -1.596266     -0.778558
  H      -2.616646     -3.332638     -0.619969
  H      -0.419634     -3.889809      0.194871
  H       0.770605     -2.740033      0.434160
  H       0.313257     -0.319747      3.766973
  H      -0.808565     -0.635922      2.572755
38
Coordinates from ORCA-job C:/Users/emanuele/Desktop/PlacementEssay/PlacementEssay/backup/ChemspeedPlatformAllVersions/V12/Workflows/DataAnalysisWorkflow/FeatureGeneration/calculationFiles/19371/geometryOptimization/19371 E -880.888218867546
  C       3.630532      0.699799     -2.355507
  C       2.320658      0.378471     -2.750322
  C       1.369867      0.047125     -1.820237
  C       1.680401      0.018841     -0.442373
  C       3.011883      0.347994     -0.043963
  C       3.964268      0.683578     -1.026203
  C       3.324898      0.327708      1.331500
  C       2.386472     -0.000082      2.265211
  C       1.060766     -0.318681      1.883177
  C       0.711550     -0.313346      0.538965
  C      -0.678747     -0.646382      0.150725
  C      -1.663314      0.370364      0.053318
  C      -1.362789      1.731155      0.291716
  C      -2.333719      2.694994      0.200900
  C      -3.655337      2.354383     -0.133456
  C      -3.979965      1.043996     -0.372407
  C      -3.008237      0.028194     -0.287136
  C      -3.314832     -1.328271     -0.525632
  C      -2.357385     -2.294835     -0.438745
  C      -1.022316     -1.969997     -0.094546
  N      -0.068909     -2.970861     -0.075375
  N       0.148119     -0.698887      2.856566
  H       4.370258      0.959248     -3.101050
  H       2.061092      0.392775     -3.800901
  H       0.364485     -0.200456     -2.130332
  H       4.970546      0.930903     -0.710074
  H       4.332513      0.575378      1.642075
  H       2.647372     -0.017640      3.316508
  H      -0.346045      2.001124      0.540487
  H      -2.079340      3.731041      0.383546
  H      -4.410413      3.125859     -0.203771
  H      -4.995004      0.769179     -0.633053
  H      -4.331547     -1.596232     -0.785541
  H      -2.608144     -3.329265     -0.639848
  H      -0.407903     -3.886007      0.168475
  H       0.778393     -2.731198      0.414875
  H       0.304563     -0.293192      3.764261
  H      -0.814690     -0.616777      2.568160
38
Coordinates from ORCA-job C:/Users/emanuele/Desktop/PlacementEssay/PlacementEssay/backup/ChemspeedPlatformAllVersions/V12/Workflows/DataAnalysisWorkflow/FeatureGeneration/calculationFiles/19371/geometryOptimization/19371 E -880.888223407051
  C       3.639295      0.681684     -2.355867
  C       2.329779      0.360926     -2.752184
  C       1.375891      0.036881     -1.822751
  C       1.682801      0.015497     -0.444081
  C       3.013903      0.344458     -0.044131
  C       3.969728      0.672527     -1.025659
  C       3.323907      0.331943      1.332099
  C       2.382321      0.011821      2.265360
  C       1.057096     -0.306572      1.881855
  C       0.711042     -0.309067      0.536703
  C      -0.678534     -0.642751      0.147175
  C      -1.665803      0.371774      0.057037
  C      -1.368685      1.731974      0.302084
  C      -2.342538      2.693493      0.218397
  C      -3.663772      2.350997     -0.115327
  C      -3.985297      1.041093     -0.361202
  C      -3.010281      0.027756     -0.283398
  C      -3.313978     -1.327930     -0.529799
  C      -2.353639     -2.292336     -0.450229
  C      -1.019273     -1.965846     -0.105338
  N      -0.063247     -2.963802     -0.091634
  N       0.141231     -0.678625      2.854878
  H       4.381272      0.935362     -3.101169
  H       2.073108      0.370067     -3.803515
  H       0.370770     -0.210128     -2.134146
  H       4.975642      0.919900     -0.708590
  H       4.331262      0.579079      1.643712
  H       2.640642     -0.000338      3.317363
  H      -0.352273      2.003645      0.550420
  H      -2.090945      3.729301      0.406091
  H      -4.420978      3.120894     -0.179857
  H      -5.000055      0.765170     -0.621526
  H      -4.330101     -1.597077     -0.790512
  H      -2.601817     -3.326215     -0.657234
  H      -0.398365     -3.882621      0.142921
  H       0.784683     -2.724642      0.397498
  H       0.295961     -0.269219      3.761079
  H      -0.820749     -0.599072      2.563471
38
Coordinates from ORCA-job C:/Users/emanuele/Desktop/PlacementEssay/PlacementEssay/backup/ChemspeedPlatformAllVersions/V12/Workflows/DataAnalysisWorkflow/FeatureGeneration/calculationFiles/19371/geometryOptimization/19371 E -880.888227067613
  C       3.650526      0.658296     -2.356279
  C       2.341538      0.337487     -2.754468
  C       1.383818      0.022777     -1.825906
  C       1.686024      0.010929     -0.446163
  C       3.016517      0.340560     -0.044224
  C       3.976506      0.658949     -1.024992
  C       3.321826      0.338957      1.333175
  C       2.376234      0.028576      2.265664
  C       1.051945     -0.291056      1.880161
  C       0.710367     -0.303893      0.533875
  C      -0.678167     -0.638722      0.142186
  C      -1.668833      0.373133      0.061714
  C      -1.375586      1.732487      0.315575
  C      -2.352804      2.691265      0.241379
  C      -3.673818      2.346864     -0.091444
  C      -3.991706      1.037861     -0.346464
  C      -3.013017      0.027231     -0.278624
  C      -3.312874     -1.327490     -0.534999
  C      -2.349018     -2.289163     -0.465132
  C      -1.015188     -1.960909     -0.120204
  N      -0.055915     -2.955359     -0.114619
  N       0.132135     -0.653416      2.852692
  H       4.395532      0.904577     -3.101046
  H       2.088244      0.339319     -3.806657
  H       0.379266     -0.224012     -2.139293
  H       4.981934      0.906977     -0.707010
  H       4.328440      0.586498      1.646704
  H       2.631226      0.024402      3.318534
  H      -0.359563      2.006345      0.563130
  H      -2.103992      3.726519      0.435718
  H      -4.433700      3.114724     -0.148350
  H      -5.006315      0.761185     -0.606405
  H      -4.328415     -1.598486     -0.795861
  H      -2.594610     -3.322199     -0.679322
  H      -0.386913     -3.878335      0.108604
  H       0.792586     -2.717647      0.373969
  H       0.284584     -0.238664      3.756741
  H      -0.828812     -0.576568      2.557637
38
Coordinates from ORCA-job C:/Users/emanuele/Desktop/PlacementEssay/PlacementEssay/backup/ChemspeedPlatformAllVersions/V12/Workflows/DataAnalysisWorkflow/FeatureGeneration/calculationFiles/19371/geometryOptimization/19371 E -880.888229169863
  C       3.659396      0.639758     -2.356592
  C       2.350883      0.318487     -2.756220
  C       1.390216      0.011184     -1.828304
  C       1.688697      0.007302     -0.447686
  C       3.018604      0.337968     -0.044225
  C       3.981673      0.648609     -1.024477
  C       3.319636      0.345510      1.334142
  C       2.370946      0.042722      2.265922
  C       1.047561     -0.278842      1.878844
  C       0.709818     -0.299907      0.531684
  C      -0.677860     -0.635928      0.137997
  C      -1.671213      0.373920      0.065353
  C      -1.380694      1.732582      0.326299
  C      -2.360312      2.689401      0.259744
  C      -3.681277      2.343811     -0.072357
  C      -3.996450      1.035647     -0.334683
  C      -3.015292      0.026880     -0.274849
  C      -3.311978     -1.327069     -0.538948
  C      -2.345500     -2.286629     -0.476958
  C      -1.011848     -1.957257     -0.132464
  N      -0.050180     -2.949166     -0.134229
  N       0.124996     -0.634377      2.851062
  H       4.406914      0.880148     -3.100762
  H       2.100049      0.314123     -3.809001
  H       0.386215     -0.235809     -2.143290
  H       4.986699      0.897414     -0.705802
  H       4.325431      0.594194      1.649422
  H       2.623252      0.045482      3.319442
  H      -0.364905      2.008009      0.573095
  H      -2.113197      3.724062      0.459396
  H      -4.443240      3.110024     -0.123205
  H      -5.011021      0.758613     -0.594419
  H      -4.327230     -1.599634     -0.799318
  H      -2.589474     -3.318918     -0.696581
  H      -0.378502     -3.874911      0.081123
  H       0.798825     -2.713109      0.354172
  H       0.275597     -0.214947      3.753228
  H      -0.835232     -0.559347      2.553437
38
Coordinates from ORCA-job C:/Users/emanuele/Desktop/PlacementEssay/PlacementEssay/backup/ChemspeedPlatformAllVersions/V12/Workflows/DataAnalysisWorkflow/FeatureGeneration/calculationFiles/19371/geometryOptimization/19371 E -880.888230243823
  C       3.665475      0.627138     -2.356823
  C       2.357336      0.305423     -2.757433
  C       1.394673      0.003224     -1.829898
  C       1.690615      0.004957     -0.448660
  C       3.020055      0.336490     -0.044201
  C       3.985102      0.641740     -1.024126
  C       3.317893      0.350387      1.334801
  C       2.367137      0.052672      2.266055
  C       1.044409     -0.270590      1.877921
  C       0.709442     -0.297169      0.530158
  C      -0.677667     -0.634184      0.135027
  C      -1.672893      0.374336      0.067782
  C      -1.384094      1.732530      0.333583
  C      -2.365238      2.688144      0.272291
  C      -3.686190      2.341868     -0.059312
  C      -3.999532      1.034291     -0.326610
  C      -3.016932      0.026688     -0.272251
  C      -3.311357     -1.326713     -0.541523
  C      -2.343166     -2.284856     -0.485044
  C      -1.009525     -1.954873     -0.140969
  N      -0.046361     -2.945256     -0.148376
  N       0.120279     -0.622067      2.850044
  H       4.414806      0.863436     -3.100470
  H       2.108100      0.296635     -3.810576
  H       0.391059     -0.244136     -2.145843
  H       4.989829      0.891084     -0.704835
  H       4.323049      0.600279      1.651283
  H       2.617529      0.060366      3.320006
  H      -0.368388      2.008815      0.579797
  H      -2.119060      3.722329      0.475588
  H      -4.449583      3.106911     -0.106057
  H      -5.014065      0.756942     -0.586276
  H      -4.326526     -1.600303     -0.801281
  H      -2.586166     -3.316600     -0.708331
  H      -0.373196     -3.872445      0.063063
  H       0.803121     -2.710476      0.339825
  H       0.269585     -0.199000      3.750747
  H      -0.839552     -0.548018      2.550918
