# Input file for Orca calculation for diamine
!B97-3c LARGEPRINT Opt Freq
%MaxCore 900
%pal nprocs 5 end

* xyz 0 1
C     -2.230136   -1.144924    0.230692
C     -0.986514   -0.324130    0.059803
C     -1.082644    1.030051   -0.255443
C      0.085064    1.773827   -0.409665
C      1.315622    1.149602   -0.245955
C      1.319884   -0.201804    0.067222
N      0.201203   -0.952926    0.223907
C      2.595897   -0.923775    0.254283
O      3.689140   -0.379724    0.145181
H     -2.841245   -0.740414    1.043483
H     -2.814286   -1.143164   -0.694769
H     -1.981331   -2.182668    0.474994
H     -2.052101    1.503317   -0.380127
H      0.034937    2.831130   -0.655412
H      2.243965    1.700019   -0.359089
H      2.502544   -1.994418    0.500896
*