# Input file for Orca single point energy calculation.
! RIJK RI-PWPB95 D3BJ def2-TZVP def2/JK def2-TZVP/C TIGHTSCF
%MaxCore 900
%pal nprocs 5 end

* xyz -1 2
C 4.034529 -0.293619 -0.915745
C 2.618992 -0.240545 -1.428061
O 1.760237 0.063465 -0.33905
C 0.394742 0.05879 -0.697164
C -0.410263 0.381228 0.539483
O -1.77497 0.388437 0.176525
C -2.640063 0.68416 1.258212
C -4.070512 0.605236 0.764003
N -4.499692 -0.691453 0.260117
N 4.194521 -1.399233 0.021982
H 4.287203 0.692406 -0.499769
H 4.692735 -0.458938 -1.770603
H 2.527099 0.526423 -2.207894
H 2.344946 -1.20856 -1.863855
H 0.190934 0.804553 -1.475361
H 0.096044 -0.920187 -1.090753
H -0.104752 1.356608 0.937036
H -0.21561 -0.368442 1.316443
H -2.480029 -0.034329 2.075635
H -2.426223 1.687047 1.654582
H -4.204358 1.340286 -0.031266
H -4.732571 0.905136 1.578373
H -3.854226 -0.987029 -0.461736
H -4.432443 -1.384335 0.996737
H 3.56987 -1.250494 0.804246
H 5.133859 -1.400322 0.397884
*