# Input file for Orca single point energy calculation.
! RIJK RI-PWPB95 D3BJ def2-TZVP def2/JK def2-TZVP/C TIGHTSCF
%MaxCore 900
%pal nprocs 5 end

* xyz -1 2
C -1.823185 -2.014116 -1.098586
C -2.591212 -0.856975 -0.869576
C -2.003599 0.28639 -0.39813
C -0.617776 0.319522 -0.135203
C 0.162211 -0.85651 -0.368018
C -0.474808 -2.014789 -0.853223
C 1.543865 -0.787904 -0.094448
C 2.081395 0.375448 0.374365
C 1.228701 1.482604 0.571908
N -0.070738 1.467619 0.330391
C 1.764115 2.767561 1.078881
O 2.929896 2.962917 1.353325
H -2.304516 -2.908233 -1.471248
H -3.654121 -0.875618 -1.068983
H -2.573556 1.186246 -0.215142
H 0.115617 -2.905086 -1.029467
H 2.162571 -1.661131 -0.260006
H 3.132959 0.479482 0.599099
H 0.992179 3.552571 1.18836
*