# Input file for Orca calculation for diamine
!B97-3c LARGEPRINT Opt Freq
%MaxCore 900
%pal nprocs 5 end

* xyz 0 1
C      2.569703    0.954222   -0.820910
O      2.232807   -0.219956   -0.089472
C      0.873953   -0.374613    0.099223
C      0.481687   -1.502584    0.806699
C     -0.876367   -1.711924    1.028299
C     -1.791810   -0.788752    0.536151
C     -1.299555    0.308399   -0.159772
N      0.014864    0.541836   -0.392833
C     -2.225230    1.322748   -0.706161
O     -3.441805    1.248867   -0.576152
H      2.147291    0.927019   -1.831372
H      3.659351    0.986061   -0.916659
H      2.255794    1.857908   -0.287038
H      1.222388   -2.203273    1.177017
H     -1.215898   -2.585127    1.578501
H     -2.858317   -0.920109    0.690261
H     -1.748857    2.159276   -1.243870
*